

        *** GPGPU-Sim Simulator Version 4.0.0  [build gpgpu-sim_git-commit-90ec3399763d7c8512cfe7dc193473086c38ca38_modified_2.0] ***


GPGPU-Sim PTX: simulation mode 0 (can change with PTX_SIM_MODE_FUNC environment variable:
               1=functional simulation only, 0=detailed performance simulator)
GPGPU-Sim PTX: overriding embedded ptx with ptx file (PTX_SIM_USE_PTX_FILE is set)
GPGPU-Sim: Configuration options:

-save_embedded_ptx                      0 # saves ptx files embedded in binary as <n>.ptx
-keep                                   0 # keep intermediate files created by GPGPU-Sim when interfacing with external programs
-gpgpu_ptx_save_converted_ptxplus                    0 # Saved converted ptxplus to a file
-gpgpu_occupancy_sm_number                   70 # The SM number to pass to ptxas when getting register usage for computing GPU occupancy. This parameter is required in the config.
-ptx_opcode_latency_int      4,13,4,5,145,21 # Opcode latencies for integers <ADD,MAX,MUL,MAD,DIV,SHFL>Default 1,1,19,25,145,32
-ptx_opcode_latency_fp          4,13,4,5,39 # Opcode latencies for single precision floating points <ADD,MAX,MUL,MAD,DIV>Default 1,1,1,1,30
-ptx_opcode_latency_dp         8,19,8,8,330 # Opcode latencies for double precision floating points <ADD,MAX,MUL,MAD,DIV>Default 8,8,8,8,335
-ptx_opcode_latency_sfu                  100 # Opcode latencies for SFU instructionsDefault 8
-ptx_opcode_latency_tesnor                   64 # Opcode latencies for Tensor instructionsDefault 64
-ptx_opcode_initiation_int          2,2,2,2,8,4 # Opcode initiation intervals for integers <ADD,MAX,MUL,MAD,DIV,SHFL>Default 1,1,4,4,32,4
-ptx_opcode_initiation_fp            2,2,2,2,4 # Opcode initiation intervals for single precision floating points <ADD,MAX,MUL,MAD,DIV>Default 1,1,1,1,5
-ptx_opcode_initiation_dp          4,4,4,4,130 # Opcode initiation intervals for double precision floating points <ADD,MAX,MUL,MAD,DIV>Default 8,8,8,8,130
-ptx_opcode_initiation_sfu                    8 # Opcode initiation intervals for sfu instructionsDefault 8
-ptx_opcode_initiation_tensor                   64 # Opcode initiation intervals for tensor instructionsDefault 64
-cdp_latency         7200,8000,100,12000,1600 # CDP API latency <cudaStreamCreateWithFlags, cudaGetParameterBufferV2_init_perWarp, cudaGetParameterBufferV2_perKernel, cudaLaunchDeviceV2_init_perWarp, cudaLaunchDevicV2_perKernel>Default 7200,8000,100,12000,1600
-network_mode                           2 # Interconnection network mode
-inter_config_file                   mesh # Interconnection network config file
-icnt_in_buffer_limit                  512 # in_buffer_limit
-icnt_out_buffer_limit                  512 # out_buffer_limit
-icnt_subnets                           2 # subnets
-icnt_arbiter_algo                      1 # arbiter_algo
-icnt_verbose                           0 # inct_verbose
-icnt_grant_cycles                      1 # grant_cycles
-gpgpu_ptx_use_cuobjdump                    1 # Use cuobjdump to extract ptx and sass from binaries
-gpgpu_experimental_lib_support                    0 # Try to extract code from cuda libraries [Broken because of unknown cudaGetExportTable]
-checkpoint_option                      0 #  checkpointing flag (0 = no checkpoint)
-checkpoint_kernel                      1 #  checkpointing during execution of which kernel (1- 1st kernel)
-checkpoint_CTA                         0 #  checkpointing after # of CTA (< less than total CTA)
-resume_option                          0 #  resume flag (0 = no resume)
-resume_kernel                          0 #  Resume from which kernel (1= 1st kernel)
-resume_CTA                             0 #  resume from which CTA 
-checkpoint_CTA_t                       0 #  resume from which CTA 
-checkpoint_insn_Y                      0 #  resume from which CTA 
-gpgpu_ptx_convert_to_ptxplus                    0 # Convert SASS (native ISA) to ptxplus and run ptxplus
-gpgpu_ptx_force_max_capability                   70 # Force maximum compute capability
-gpgpu_ptx_inst_debug_to_file                    0 # Dump executed instructions' debug information to file
-gpgpu_ptx_inst_debug_file       inst_debug.txt # Executed instructions' debug output file
-gpgpu_ptx_inst_debug_thread_uid                    1 # Thread UID for executed instructions' debug output
-gpgpu_simd_model                       1 # 1 = post-dominator
-gpgpu_shader_core_pipeline              2048:32 # shader core pipeline config, i.e., {<nthread>:<warpsize>}
-gpgpu_tex_cache:l1  N:4:128:256,L:R:m:N:L,T:512:8,128:2 # per-shader L1 texture cache  (READ-ONLY) config  {<nsets>:<bsize>:<assoc>,<rep>:<wr>:<alloc>:<wr_alloc>,<mshr>:<N>:<merge>,<mq>:<rf>}
-gpgpu_const_cache:l1 N:128:64:8,L:R:f:N:L,S:2:64,4 # per-shader L1 constant memory cache  (READ-ONLY) config  {<nsets>:<bsize>:<assoc>,<rep>:<wr>:<alloc>:<wr_alloc>,<mshr>:<N>:<merge>,<mq>} 
-gpgpu_cache:il1     N:64:128:16,L:R:f:N:L,S:2:48,4 # shader L1 instruction cache config  {<nsets>:<bsize>:<assoc>,<rep>:<wr>:<alloc>:<wr_alloc>,<mshr>:<N>:<merge>,<mq>} 
-gpgpu_cache:dl1     S:1:128:256,L:L:s:N:L,A:256:8,16:0,32 # per-shader L1 data cache config  {<nsets>:<bsize>:<assoc>,<rep>:<wr>:<alloc>:<wr_alloc>,<mshr>:<N>:<merge>,<mq> | none}
-gpgpu_l1_banks                         4 # The number of L1 cache banks
-gpgpu_l1_banks_byte_interleaving                   32 # l1 banks byte interleaving granularity
-gpgpu_l1_banks_hashing_function                    0 # l1 banks hashing function
-gpgpu_l1_latency                      20 # L1 Hit Latency
-gpgpu_smem_latency                    20 # smem Latency
-gpgpu_cache:dl1PrefL1                 none # per-shader L1 data cache config  {<nsets>:<bsize>:<assoc>,<rep>:<wr>:<alloc>:<wr_alloc>,<mshr>:<N>:<merge>,<mq> | none}
-gpgpu_cache:dl1PrefShared                 none # per-shader L1 data cache config  {<nsets>:<bsize>:<assoc>,<rep>:<wr>:<alloc>:<wr_alloc>,<mshr>:<N>:<merge>,<mq> | none}
-gpgpu_gmem_skip_L1D                    0 # global memory access skip L1D cache (implements -Xptxas -dlcm=cg, default=no skip)
-gpgpu_perfect_mem                      0 # enable perfect memory mode (no cache miss)
-n_regfile_gating_group                    4 # group of lanes that should be read/written together)
-gpgpu_clock_gated_reg_file                    0 # enable clock gated reg file for power calculations
-gpgpu_clock_gated_lanes                    0 # enable clock gated lanes for power calculations
-gpgpu_shader_registers                65536 # Number of registers per shader core. Limits number of concurrent CTAs. (default 8192)
-gpgpu_registers_per_block                65536 # Maximum number of registers per CTA. (default 8192)
-gpgpu_ignore_resources_limitation                    0 # gpgpu_ignore_resources_limitation (default 0)
-gpgpu_shader_cta                      32 # Maximum number of concurrent CTAs in shader (default 8)
-gpgpu_num_cta_barriers                   16 # Maximum number of named barriers per CTA (default 16)
-gpgpu_n_clusters                      80 # number of processing clusters
-gpgpu_n_cores_per_cluster                    1 # number of simd cores per cluster
-gpgpu_n_cluster_ejection_buffer_size                   32 # number of packets in ejection buffer
-gpgpu_n_ldst_response_buffer_size                    2 # number of response packets in ld/st unit ejection buffer
-gpgpu_shmem_per_block                65536 # Size of shared memory per thread block or CTA (default 48kB)
-gpgpu_shmem_size                   98304 # Size of shared memory per shader core (default 16kB)
-gpgpu_adaptive_cache_config                    1 # adaptive_cache_config
-gpgpu_shmem_sizeDefault                98304 # Size of shared memory per shader core (default 16kB)
-gpgpu_shmem_size_PrefL1                16384 # Size of shared memory per shader core (default 16kB)
-gpgpu_shmem_size_PrefShared                16384 # Size of shared memory per shader core (default 16kB)
-gpgpu_shmem_num_banks                   32 # Number of banks in the shared memory in each shader core (default 16)
-gpgpu_shmem_limited_broadcast                    0 # Limit shared memory to do one broadcast per cycle (default on)
-gpgpu_shmem_warp_parts                    1 # Number of portions a warp is divided into for shared memory bank conflict check 
-gpgpu_mem_unit_ports                    1 # The number of memory transactions allowed per core cycle
-gpgpu_shmem_warp_parts                    1 # Number of portions a warp is divided into for shared memory bank conflict check 
-gpgpu_warpdistro_shader                   -1 # Specify which shader core to collect the warp size distribution from
-gpgpu_warp_issue_shader                    0 # Specify which shader core to collect the warp issue distribution from
-gpgpu_local_mem_map                    1 # Mapping from local memory space address to simulated GPU physical address space (default = enabled)
-gpgpu_num_reg_banks                   16 # Number of register banks (default = 8)
-gpgpu_reg_bank_use_warp_id                    0 # Use warp ID in mapping registers to banks (default = off)
-gpgpu_sub_core_model                    1 # Sub Core Volta/Pascal model (default = off)
-gpgpu_enable_specialized_operand_collector                    0 # enable_specialized_operand_collector
-gpgpu_operand_collector_num_units_sp                    4 # number of collector units (default = 4)
-gpgpu_operand_collector_num_units_dp                    0 # number of collector units (default = 0)
-gpgpu_operand_collector_num_units_sfu                    4 # number of collector units (default = 4)
-gpgpu_operand_collector_num_units_int                    0 # number of collector units (default = 0)
-gpgpu_operand_collector_num_units_tensor_core                    4 # number of collector units (default = 4)
-gpgpu_operand_collector_num_units_mem                    2 # number of collector units (default = 2)
-gpgpu_operand_collector_num_units_gen                    8 # number of collector units (default = 0)
-gpgpu_operand_collector_num_in_ports_sp                    1 # number of collector unit in ports (default = 1)
-gpgpu_operand_collector_num_in_ports_dp                    0 # number of collector unit in ports (default = 0)
-gpgpu_operand_collector_num_in_ports_sfu                    1 # number of collector unit in ports (default = 1)
-gpgpu_operand_collector_num_in_ports_int                    0 # number of collector unit in ports (default = 0)
-gpgpu_operand_collector_num_in_ports_tensor_core                    1 # number of collector unit in ports (default = 1)
-gpgpu_operand_collector_num_in_ports_mem                    1 # number of collector unit in ports (default = 1)
-gpgpu_operand_collector_num_in_ports_gen                    8 # number of collector unit in ports (default = 0)
-gpgpu_operand_collector_num_out_ports_sp                    1 # number of collector unit in ports (default = 1)
-gpgpu_operand_collector_num_out_ports_dp                    0 # number of collector unit in ports (default = 0)
-gpgpu_operand_collector_num_out_ports_sfu                    1 # number of collector unit in ports (default = 1)
-gpgpu_operand_collector_num_out_ports_int                    0 # number of collector unit in ports (default = 0)
-gpgpu_operand_collector_num_out_ports_tensor_core                    1 # number of collector unit in ports (default = 1)
-gpgpu_operand_collector_num_out_ports_mem                    1 # number of collector unit in ports (default = 1)
-gpgpu_operand_collector_num_out_ports_gen                    8 # number of collector unit in ports (default = 0)
-gpgpu_coalesce_arch                   60 # Coalescing arch (GT200 = 13, Fermi = 20)
-gpgpu_num_sched_per_core                    4 # Number of warp schedulers per core
-gpgpu_max_insn_issue_per_warp                    1 # Max number of instructions that can be issued per warp in one cycle by scheduler (either 1 or 2)
-gpgpu_dual_issue_diff_exec_units                    1 # should dual issue use two different execution unit resources (Default = 1)
-gpgpu_simt_core_sim_order                    1 # Select the simulation order of cores in a cluster (0=Fix, 1=Round-Robin)
-gpgpu_pipeline_widths 4,4,4,4,4,4,4,4,4,4,8,4,4 # Pipeline widths ID_OC_SP,ID_OC_DP,ID_OC_INT,ID_OC_SFU,ID_OC_MEM,OC_EX_SP,OC_EX_DP,OC_EX_INT,OC_EX_SFU,OC_EX_MEM,EX_WB,ID_OC_TENSOR_CORE,OC_EX_TENSOR_CORE
-gpgpu_tensor_core_avail                    1 # Tensor Core Available (default=0)
-gpgpu_num_sp_units                     4 # Number of SP units (default=1)
-gpgpu_num_dp_units                     4 # Number of DP units (default=0)
-gpgpu_num_int_units                    4 # Number of INT units (default=0)
-gpgpu_num_sfu_units                    4 # Number of SF units (default=1)
-gpgpu_num_tensor_core_units                    4 # Number of tensor_core units (default=1)
-gpgpu_num_mem_units                    1 # Number if ldst units (default=1) WARNING: not hooked up to anything
-gpgpu_scheduler                      gto # Scheduler configuration: < lrr | gto | two_level_active > If two_level_active:<num_active_warps>:<inner_prioritization>:<outer_prioritization>For complete list of prioritization values see shader.h enum scheduler_prioritization_typeDefault: gto
-gpgpu_concurrent_kernel_sm                    0 # Support concurrent kernels on a SM (default = disabled)
-gpgpu_perfect_inst_const_cache                    1 # perfect inst and const cache mode, so all inst and const hits in the cache(default = disabled)
-gpgpu_inst_fetch_throughput                    4 # the number of fetched intruction per warp each cycle
-gpgpu_reg_file_port_throughput                    2 # the number ports of the register file
-specialized_unit_1         0,4,4,4,4,BRA # specialized unit config {<enabled>,<num_units>:<latency>:<initiation>,<ID_OC_SPEC>:<OC_EX_SPEC>,<NAME>}
-specialized_unit_2         0,4,4,4,4,BRA # specialized unit config {<enabled>,<num_units>:<latency>:<initiation>,<ID_OC_SPEC>:<OC_EX_SPEC>,<NAME>}
-specialized_unit_3         0,4,4,4,4,BRA # specialized unit config {<enabled>,<num_units>:<latency>:<initiation>,<ID_OC_SPEC>:<OC_EX_SPEC>,<NAME>}
-specialized_unit_4         0,4,4,4,4,BRA # specialized unit config {<enabled>,<num_units>:<latency>:<initiation>,<ID_OC_SPEC>:<OC_EX_SPEC>,<NAME>}
-specialized_unit_5         0,4,4,4,4,BRA # specialized unit config {<enabled>,<num_units>:<latency>:<initiation>,<ID_OC_SPEC>:<OC_EX_SPEC>,<NAME>}
-specialized_unit_6         0,4,4,4,4,BRA # specialized unit config {<enabled>,<num_units>:<latency>:<initiation>,<ID_OC_SPEC>:<OC_EX_SPEC>,<NAME>}
-specialized_unit_7         0,4,4,4,4,BRA # specialized unit config {<enabled>,<num_units>:<latency>:<initiation>,<ID_OC_SPEC>:<OC_EX_SPEC>,<NAME>}
-specialized_unit_8         0,4,4,4,4,BRA # specialized unit config {<enabled>,<num_units>:<latency>:<initiation>,<ID_OC_SPEC>:<OC_EX_SPEC>,<NAME>}
-gpgpu_perf_sim_memcpy                    1 # Fill the L2 cache on memcpy
-gpgpu_simple_dram_model                    0 # simple_dram_model with fixed latency and BW
-gpgpu_dram_scheduler                    1 # 0 = fifo, 1 = FR-FCFS (defaul)
-gpgpu_dram_partition_queues          64:64:64:64 # i2$:$2d:d2$:$2i
-l2_ideal                               0 # Use a ideal L2 cache that always hit
-gpgpu_cache:dl2     S:32:128:24,L:B:m:L:P,A:192:4,32:0,32 # unified banked L2 data cache config  {<nsets>:<bsize>:<assoc>,<rep>:<wr>:<alloc>:<wr_alloc>,<mshr>:<N>:<merge>,<mq>}
-gpgpu_cache:dl2_texture_only                    0 # L2 cache used for texture only
-gpgpu_n_mem                           32 # number of memory modules (e.g. memory controllers) in gpu
-gpgpu_n_sub_partition_per_mchannel                    2 # number of memory subpartition in each memory module
-gpgpu_n_mem_per_ctrlr                    1 # number of memory chips per memory controller
-gpgpu_memlatency_stat                   14 # track and display latency statistics 0x2 enables MC, 0x4 enables queue logs
-gpgpu_frfcfs_dram_sched_queue_size                   64 # 0 = unlimited (default); # entries per chip
-gpgpu_dram_return_queue_size                  192 # 0 = unlimited (default); # entries per chip
-gpgpu_dram_buswidth                   16 # default = 4 bytes (8 bytes per cycle at DDR)
-gpgpu_dram_burst_length                    2 # Burst length of each DRAM request (default = 4 data bus cycle)
-dram_data_command_freq_ratio                    2 # Frequency ratio between DRAM data bus and command bus (default = 2 times, i.e. DDR)
-gpgpu_dram_timing_opt nbk=16:CCD=1:RRD=3:RCD=12:RAS=28:RP=12:RC=40: CL=12:WL=2:CDLR=3:WR=10:nbkgrp=4:CCDL=2:RTPL=3 # DRAM timing parameters = {nbk:tCCD:tRRD:tRCD:tRAS:tRP:tRC:CL:WL:tCDLR:tWR:nbkgrp:tCCDL:tRTPL}
-gpgpu_l2_rop_latency                  160 # ROP queue latency (default 85)
-dram_latency                         100 # DRAM latency (default 30)
-dram_dual_bus_interface                    1 # dual_bus_interface (default = 0) 
-dram_bnk_indexing_policy                    0 # dram_bnk_indexing_policy (0 = normal indexing, 1 = Xoring with the higher bits) (Default = 0)
-dram_bnkgrp_indexing_policy                    1 # dram_bnkgrp_indexing_policy (0 = take higher bits, 1 = take lower bits) (Default = 0)
-dram_seperate_write_queue_enable                    0 # Seperate_Write_Queue_Enable
-dram_write_queue_size             32:28:16 # Write_Queue_Size
-dram_elimnate_rw_turnaround                    0 # elimnate_rw_turnaround i.e set tWTR and tRTW = 0
-icnt_flit_size                        40 # icnt_flit_size
-gpgpu_mem_addr_mapping dramid@8;00000000.00000000.00000000.00000000.0000RRRR.RRRRRRRR.RBBBCCCB.CCCSSSSS # mapping memory address to dram model {dramid@<start bit>;<memory address map>}
-gpgpu_mem_addr_test                    0 # run sweep test to check address mapping for aliased address
-gpgpu_mem_address_mask                    1 # 0 = old addressing mask, 1 = new addressing mask, 2 = new add. mask + flipped bank sel and chip sel bits
-gpgpu_memory_partition_indexing                    2 # 0 = no indexing, 1 = bitwise xoring, 2 = IPoly, 3 = custom indexing
-gpuwattch_xml_file         gpuwattch.xml # GPUWattch XML file
-power_simulation_enabled                    0 # Turn on power simulator (1=On, 0=Off)
-power_per_cycle_dump                    0 # Dump detailed power output each cycle
-power_trace_enabled                    0 # produce a file for the power trace (1=On, 0=Off)
-power_trace_zlevel                     6 # Compression level of the power trace output log (0=no comp, 9=highest)
-steady_power_levels_enabled                    0 # produce a file for the steady power levels (1=On, 0=Off)
-steady_state_definition                  8:4 # allowed deviation:number of samples
-gpgpu_max_cycle                        0 # terminates gpu simulation early (0 = no limit)
-gpgpu_max_insn                         0 # terminates gpu simulation early (0 = no limit)
-gpgpu_max_cta                          0 # terminates gpu simulation early (0 = no limit)
-gpgpu_max_completed_cta                    0 # terminates gpu simulation early (0 = no limit)
-gpgpu_runtime_stat                   500 # display runtime statistics such as dram utilization {<freq>:<flag>}
-liveness_message_freq                    1 # Minimum number of seconds between simulation liveness messages (0 = always print)
-gpgpu_compute_capability_major                    7 # Major compute capability version number
-gpgpu_compute_capability_minor                    0 # Minor compute capability version number
-gpgpu_flush_l1_cache                    1 # Flush L1 cache at the end of each kernel call
-gpgpu_flush_l2_cache                    0 # Flush L2 cache at the end of each kernel call
-gpgpu_deadlock_detect                    1 # Stop the simulation at deadlock (1=on (default), 0=off)
-gpgpu_ptx_instruction_classification                    0 # if enabled will classify ptx instruction types per kernel (Max 255 kernels now)
-gpgpu_ptx_sim_mode                     0 # Select between Performance (default) or Functional simulation (1)
-gpgpu_clock_domains 1132.0:1132.0:1132.0:850.0 # Clock Domain Frequencies in MhZ {<Core Clock>:<ICNT Clock>:<L2 Clock>:<DRAM Clock>}
-gpgpu_max_concurrent_kernel                    8 # maximum kernels that can run concurrently on GPU
-gpgpu_cflog_interval                    0 # Interval between each snapshot in control flow logger
-visualizer_enabled                     0 # Turn on visualizer output (1=On, 0=Off)
-visualizer_outputfile                 NULL # Specifies the output log file for visualizer
-visualizer_zlevel                      6 # Compression level of the visualizer output log (0=no comp, 9=highest)
-gpgpu_stack_size_limit                 1024 # GPU thread stack size
-gpgpu_heap_size_limit              8388608 # GPU malloc heap size 918c1ee497ffc26003b623362022aa30  /home/wmhu/share/cutlass-gpgpu-sim/test_ant/18496_192_192/cutlass-test
Extracting PTX file and ptxas options    1: cutlass-test.1.sm_70.ptx -arch=sm_70

-gpgpu_runtime_sync_depth_limit                    2 # GPU device runtime synchronize depth
-gpgpu_runtime_pending_launch_count_limit                 2048 # GPU device runtime pending launch count
-trace_enabled                          0 # Turn on traces
-trace_components                    none # comma seperated list of traces to enable. Complete list found in trace_streams.tup. Default none
-trace_sampling_core                    0 # The core which is printed using CORE_DPRINTF. Default 0
-trace_sampling_memory_partition                   -1 # The memory partition which is printed using MEMPART_DPRINTF. Default -1 (i.e. all)
-enable_ptx_file_line_stats                    1 # Turn on PTX source line statistic profiling. (1 = On)
-ptx_line_stats_filename gpgpu_inst_stats.txt # Output file for PTX source line statistics.
-gpgpu_kernel_launch_latency                 5000 # Kernel launch latency in cycles. Default: 0
-gpgpu_cdp_enabled                      0 # Turn on CDP
-gpgpu_TB_launch_latency                    0 # thread block launch latency in cycles. Default: 0
DRAM Timing Options:
nbk                                    16 # number of banks
CCD                                     1 # column to column delay
RRD                                     3 # minimal delay between activation of rows in different banks
RCD                                    12 # row to column delay
RAS                                    28 # time needed to activate row
RP                                     12 # time needed to precharge (deactivate) row
RC                                     40 # row cycle time
CDLR                                    3 # switching from write to read (changes tWTR)
WR                                     10 # last data-in to row precharge
CL                                     12 # CAS latency
WL                                      2 # Write latency
nbkgrp                                  4 # number of bank groups
CCDL                                    2 # column to column delay between accesses to different bank groups
RTPL                                    3 # read to precharge delay between accesses to different bank groups
Total number of memory sub partition = 64
addr_dec_mask[CHIP]  = 0000000000001f00 	high:13 low:8
addr_dec_mask[BK]    = 00000000000e2000 	high:20 low:13
addr_dec_mask[ROW]   = 00000001fff00000 	high:33 low:20
addr_dec_mask[COL]   = 000000000001c0ff 	high:17 low:0
addr_dec_mask[BURST] = 000000000000001f 	high:5 low:0
sub_partition_id_mask = 0000000000002000
GPGPU-Sim uArch: clock freqs: 1132000000.000000:1132000000.000000:1132000000.000000:850000000.000000
GPGPU-Sim uArch: clock periods: 0.00000000088339222615:0.00000000088339222615:0.00000000088339222615:0.00000000117647058824
*** Initializing Memory Statistics ***
GPGPU-Sim uArch: performance model initialization complete.
self exe links to: /home/wmhu/share/cutlass-gpgpu-sim/test_ant/18496_192_192/cutlass-test
self exe links to: /home/wmhu/share/cutlass-gpgpu-sim/test_ant/18496_192_192/cutlass-test
9.1
GPGPU-Sim PTX: __cudaRegisterFatBinary, fat_cubin_handle = 1, filename=default
self exe links to: /home/wmhu/share/cutlass-gpgpu-sim/test_ant/18496_192_192/cutlass-test
Running md5sum using "md5sum /home/wmhu/share/cutlass-gpgpu-sim/test_ant/18496_192_192/cutlass-test "
self exe links to: /home/wmhu/share/cutlass-gpgpu-sim/test_ant/18496_192_192/cutlass-test
Extracting specific PTX file named cutlass-test.1.sm_70.ptx 
GPGPU-Sim PTX: __cudaRegisterFunction _ZN7cutlass4gemm11gemm_kernelINS0_4GemmINS0_14WmmaGemmTraitsILNS_12MatrixLayout4KindE0ELS5_1ENS_5ShapeILi64ELi128ELi128ELi1EEEfNS0_13LinearScalingIfNS0_19FragmentMultiplyAddIfEEEEfNS6_ILi64ELi32ELi64ELi1EEENS6_ILi16ELi16ELi16ELi1EEELi8ELi8EiNS0_20WmmaGemmTraitsHelperILS5_0ELS5_1ES7_ffSB_SC_SD_Li8ELi8EiEEEEEEEEvNT_6ParamsE : hostFun 0x0x557e6f3bb49e, fat_cubin_handle = 1
GPGPU-Sim PTX: Parsing cutlass-test.1.sm_70.ptx
GPGPU-Sim PTX: allocating stack frame region for .param "__assertfail_param_0" from 0x0 to 0x8
GPGPU-Sim PTX: allocating stack frame region for .param "__assertfail_param_1" from 0x8 to 0x10
GPGPU-Sim PTX: allocating stack frame region for .param "__assertfail_param_2" from 0x10 to 0x14
GPGPU-Sim PTX: allocating stack frame region for .param "__assertfail_param_3" from 0x14 to 0x1c
GPGPU-Sim PTX: allocating stack frame region for .param "__assertfail_param_4" from 0x1c to 0x24
GPGPU-Sim PTX: allocating global region for "__unnamed_1" from 0x100 to 0x190 (global memory space)
GPGPU-Sim PTX: allocating global region for "__unnamed_2" from 0x200 to 0x28f (global memory space)
GPGPU-Sim PTX: allocating global region for "$str" from 0x300 to 0x30f (global memory space)
GPGPU-Sim PTX: allocating global region for "$str1" from 0x380 to 0x395 (global memory space)
GPGPU-Sim PTX: allocating shared region for "_ZN7cutlass4gemm11gemm_kernelINS0_4GemmINS0_14WmmaGemmTraitsILNS_12MatrixLayout4KindE0ELS5_1ENS_5ShapeILi64ELi128ELi128ELi1EEEfNS0_13LinearScalingIfNS0_19FragmentMultiplyAddIfEEEEfNS6_ILi64ELi32ELi64ELi1EEENS6_ILi16ELi16ELi16ELi1EEELi8ELi8EiNS0_20WmmaGemmTraitsHelperILS5_0ELS5_1ES7_ffSB_SC_SD_Li8ELi8EiEEEEEEEEvNT_6ParamsE$__cuda_local_var_31745_57_non_const_shared_storage" from 0x0 to 0x9010 (shared memory space)
GPGPU-Sim PTX: allocating stack frame region for .param "param0" from 0x0 to 0x8
GPGPU-Sim PTX: allocating stack frame region for .param "param1" from 0x8 to 0x10
GPGPU-Sim PTX: allocating stack frame region for .param "param2" from 0x10 to 0x14
GPGPU-Sim PTX: allocating stack frame region for .param "param3" from 0x14 to 0x1c
GPGPU-Sim PTX: allocating stack frame region for .param "param4" from 0x1c to 0x24
GPGPU-Sim PTX: allocating stack frame region for .param "param0" from 0x24 to 0x2c
GPGPU-Sim PTX: allocating stack frame region for .param "param1" from 0x2c to 0x34
GPGPU-Sim PTX: allocating stack frame region for .param "param2" from 0x34 to 0x38
GPGPU-Sim PTX: allocating stack frame region for .param "param3" from 0x38 to 0x40
GPGPU-Sim PTX: allocating stack frame region for .param "param4" from 0x40 to 0x48
GPGPU-Sim PTX: allocating stack frame region for .param "param0" from 0x48 to 0x50
GPGPU-Sim PTX: allocating stack frame region for .param "param1" from 0x50 to 0x58
GPGPU-Sim PTX: allocating stack frame region for .param "param2" from 0x58 to 0x5c
GPGPU-Sim PTX: allocating stack frame region for .param "param3" from 0x5c to 0x64
GPGPU-Sim PTX: allocating stack frame region for .param "param4" from 0x64 to 0x6c
GPGPU-Sim PTX: allocating stack frame region for .param "param0" from 0x6c to 0x74
GPGPU-Sim PTX: allocating stack frame region for .param "param1" from 0x74 to 0x7c
GPGPU-Sim PTX: allocating stack frame region for .param "param2" from 0x7c to 0x80
GPGPU-Sim PTX: allocating stack frame region for .param "param3" from 0x80 to 0x88
GPGPU-Sim PTX: allocating stack frame region for .param "param4" from 0x88 to 0x90
GPGPU-Sim PTX: allocating stack frame region for .param "param0" from 0x90 to 0x98
GPGPU-Sim PTX: allocating stack frame region for .param "param1" from 0x98 to 0xa0
GPGPU-Sim PTX: allocating stack frame region for .param "param2" from 0xa0 to 0xa4
GPGPU-Sim PTX: allocating stack frame region for .param "param3" from 0xa4 to 0xac
GPGPU-Sim PTX: allocating stack frame region for .param "param4" from 0xac to 0xb4
GPGPU-Sim PTX: allocating stack frame region for .param "param0" from 0xb4 to 0xbc
GPGPU-Sim PTX: allocating stack frame region for .param "param1" from 0xbc to 0xc4
GPGPU-Sim PTX: allocating stack frame region for .param "param2" from 0xc4 to 0xc8
GPGPU-Sim PTX: allocating stack frame region for .param "param3" from 0xc8 to 0xd0
GPGPU-Sim PTX: allocating stack frame region for .param "param4" from 0xd0 to 0xd8
GPGPU-Sim PTX: allocating stack frame region for .param "param0" from 0xd8 to 0xe0
GPGPU-Sim PTX: allocating stack frame region for .param "param1" from 0xe0 to 0xe8
GPGPU-Sim PTX: allocating stack frame region for .param "param2" from 0xe8 to 0xec
GPGPU-Sim PTX: allocating stack frame region for .param "param3" from 0xec to 0xf4
GPGPU-Sim PTX: allocating stack frame region for .param "param4" from 0xf4 to 0xfc
GPGPU-Sim PTX: instruction assembly for function '_ZN7cutlass4gemm11gemm_kernelINS0_4GemmINS0_14WmmaGemmTraitsILNS_12MatrixLayout4KindE0ELS5_1ENS_5ShapeILi64ELi128ELi128ELi1EEEfNS0_13LinearScalingIfNS0_19FragmentMultiplyAddIfEEEEfNS6_ILi64ELi32ELi64ELi1EEENS6_ILi16ELi16ELi16ELi1EEELi8ELi8EiNS0_20WmmaGemmTraitsHelperILS5_0ELS5_1ES7_ffSB_SC_SD_Li8ELi8EiEEEEEEEEvNT_6ParamsE'...   done.
GPGPU-Sim PTX: finished parsing EMBEDDED .ptx file cutlass-test.1.sm_70.ptx
GPGPU-Sim PTX: loading globals with explicit initializers... 
GPGPU-Sim PTX:     initializing '__unnamed_1' ...  wrote 144 bytes
GPGPU-Sim PTX:     initializing '__unnamed_2' ...  wrote 143 bytes
GPGPU-Sim PTX:     initializing '$str' ...  wrote 15 bytes
GPGPU-Sim PTX:     initializing '$str1' ...  wrote 21 bytes
GPGPU-Sim PTX: finished loading globals (323 bytes total).
GPGPU-Sim PTX: loading constants with explicit initializers...  done.
GPGPU-Sim PTX: Loading PTXInfo from cutlass-test.1.sm_70.ptx
GPGPU-Sim PTX: Kernel '_ZN7cutlass4gemm11gemm_kernelINS0_4GemmINS0_14WmmaGemmTraitsILNS_12MatrixLayout4KindE0ELS5_1ENS_5ShapeILi64ELi128ELi128ELi1EEEfNS0_13LinearScalingIfNS0_19FragmentMultiplyAddIfEEEEfNS6_ILi64ELi32ELi64ELi1EEENS6_ILi16ELi16ELi16ELi1EEELi8ELi8EiNS0_20WmmaGemmTraitsHelperILS5_0ELS5_1ES7_ffSB_SC_SD_Li8ELi8EiEEEEEEEEvNT_6ParamsE' : regs=255, lmem=0, smem=36880, cmem=784
self exe links to: /home/wmhu/share/cutlass-gpgpu-sim/test_ant/18496_192_192/cutlass-test
self exe links to: /home/wmhu/share/cutlass-gpgpu-sim/test_ant/18496_192_192/cutlass-test
9.1
GPGPU-Sim PTX: __cudaRegisterFatBinary, fat_cubin_handle = 2, filename=default
GPGPU-Sim PTX: __cudaRegisterFunction __nv_static_51__38_cuda_device_runtime_compute_70_cpp1_ii_8b1a5d37__Z16memcpy_3d_deviceImLi1ELi1ELi1EEvPKhPhT_S3_S3_S3_S3_S3_S3_jjjjjjjjS3_S1_S2_ : hostFun 0x0x557e6f3c3270, fat_cubin_handle = 2
Warning: cannot find deviceFun __nv_static_51__38_cuda_device_runtime_compute_70_cpp1_ii_8b1a5d37__Z16memcpy_3d_deviceImLi1ELi1ELi1EEvPKhPhT_S3_S3_S3_S3_S3_S3_jjjjjjjjS3_S1_S2_
GPGPU-Sim PTX: __cudaRegisterFunction __nv_static_51__38_cuda_device_runtime_compute_70_cpp1_ii_8b1a5d37__Z16memcpy_3d_deviceImLi1ELi1ELi0EEvPKhPhT_S3_S3_S3_S3_S3_S3_jjjjjjjjS3_S1_S2_ : hostFun 0x0x557e6f3c3500, fat_cubin_handle = 2
Warning: cannot find deviceFun __nv_static_51__38_cuda_device_runtime_compute_70_cpp1_ii_8b1a5d37__Z16memcpy_3d_deviceImLi1ELi1ELi0EEvPKhPhT_S3_S3_S3_S3_S3_S3_jjjjjjjjS3_S1_S2_
GPGPU-Sim PTX: __cudaRegisterFunction __nv_static_51__38_cuda_device_runtime_compute_70_cpp1_ii_8b1a5d37__Z16memcpy_3d_deviceImLi1ELi0ELi1EEvPKhPhT_S3_S3_S3_S3_S3_S3_jjjjjjjjS3_S1_S2_ : hostFun 0x0x557e6f3c3790, fat_cubin_handle = 2
Warning: cannot find deviceFun __nv_static_51__38_cuda_device_runtime_compute_70_cpp1_ii_8b1a5d37__Z16memcpy_3d_deviceImLi1ELi0ELi1EEvPKhPhT_S3_S3_S3_S3_S3_S3_jjjjjjjjS3_S1_S2_
GPGPU-Sim PTX: __cudaRegisterFunction __nv_static_51__38_cuda_device_runtime_compute_70_cpp1_ii_8b1a5d37__Z16memcpy_3d_deviceImLi1ELi0ELi0EEvPKhPhT_S3_S3_S3_S3_S3_S3_jjjjjjjjS3_S1_S2_ : hostFun 0x0x557e6f3c3a20, fat_cubin_handle = 2
Warning: cannot find deviceFun __nv_static_51__38_cuda_device_runtime_compute_70_cpp1_ii_8b1a5d37__Z16memcpy_3d_deviceImLi1ELi0ELi0EEvPKhPhT_S3_S3_S3_S3_S3_S3_jjjjjjjjS3_S1_S2_
GPGPU-Sim PTX: __cudaRegisterFunction __nv_static_51__38_cuda_device_runtime_compute_70_cpp1_ii_8b1a5d37__Z16memcpy_3d_deviceImLi0ELi1ELi1EEvPKhPhT_S3_S3_S3_S3_S3_S3_jjjjjjjjS3_S1_S2_ : hostFun 0x0x557e6f3c3cb0, fat_cubin_handle = 2
Warning: cannot find deviceFun __nv_static_51__38_cuda_device_runtime_compute_70_cpp1_ii_8b1a5d37__Z16memcpy_3d_deviceImLi0ELi1ELi1EEvPKhPhT_S3_S3_S3_S3_S3_S3_jjjjjjjjS3_S1_S2_
GPGPU-Sim PTX: __cudaRegisterFunction __nv_static_51__38_cuda_device_runtime_compute_70_cpp1_ii_8b1a5d37__Z16memcpy_3d_deviceImLi0ELi1ELi0EEvPKhPhT_S3_S3_S3_S3_S3_S3_jjjjjjjjS3_S1_S2_ : hostFun 0x0x557e6f3c3f40, fat_cubin_handle = 2
Warning: cannot find deviceFun __nv_static_51__38_cuda_device_runtime_compute_70_cpp1_ii_8b1a5d37__Z16memcpy_3d_deviceImLi0ELi1ELi0EEvPKhPhT_S3_S3_S3_S3_S3_S3_jjjjjjjjS3_S1_S2_
GPGPU-Sim PTX: __cudaRegisterFunction __nv_static_51__38_cuda_device_runtime_compute_70_cpp1_ii_8b1a5d37__Z16memcpy_3d_deviceImLi0ELi0ELi1EEvPKhPhT_S3_S3_S3_S3_S3_S3_jjjjjjjjS3_S1_S2_ : hostFun 0x0x557e6f3c41d0, fat_cubin_handle = 2
Warning: cannot find deviceFun __nv_static_51__38_cuda_device_runtime_compute_70_cpp1_ii_8b1a5d37__Z16memcpy_3d_deviceImLi0ELi0ELi1EEvPKhPhT_S3_S3_S3_S3_S3_S3_jjjjjjjjS3_S1_S2_
GPGPU-Sim PTX: __cudaRegisterFunction __nv_static_51__38_cuda_device_runtime_compute_70_cpp1_ii_8b1a5d37__Z16memcpy_3d_deviceImLi0ELi0ELi0EEvPKhPhT_S3_S3_S3_S3_S3_S3_jjjjjjjjS3_S1_S2_ : hostFun 0x0x557e6f3c4460, fat_cubin_handle = 2
Warning: cannot find deviceFun __nv_static_51__38_cuda_device_runtime_compute_70_cpp1_ii_8b1a5d37__Z16memcpy_3d_deviceImLi0ELi0ELi0EEvPKhPhT_S3_S3_S3_S3_S3_S3_jjjjjjjjS3_S1_S2_
GPGPU-Sim PTX: __cudaRegisterFunction __nv_static_51__38_cuda_device_runtime_compute_70_cpp1_ii_8b1a5d37__Z16memcpy_3d_deviceIjLi1ELi1ELi1EEvPKhPhT_S3_S3_S3_S3_S3_S3_jjjjjjjjS3_S1_S2_ : hostFun 0x0x557e6f3c46e0, fat_cubin_handle = 2
Warning: cannot find deviceFun __nv_static_51__38_cuda_device_runtime_compute_70_cpp1_ii_8b1a5d37__Z16memcpy_3d_deviceIjLi1ELi1ELi1EEvPKhPhT_S3_S3_S3_S3_S3_S3_jjjjjjjjS3_S1_S2_
GPGPU-Sim PTX: __cudaRegisterFunction __nv_static_51__38_cuda_device_runtime_compute_70_cpp1_ii_8b1a5d37__Z16memcpy_3d_deviceIjLi1ELi1ELi0EEvPKhPhT_S3_S3_S3_S3_S3_S3_jjjjjjjjS3_S1_S2_ : hostFun 0x0x557e6f3c4960, fat_cubin_handle = 2
Warning: cannot find deviceFun __nv_static_51__38_cuda_device_runtime_compute_70_cpp1_ii_8b1a5d37__Z16memcpy_3d_deviceIjLi1ELi1ELi0EEvPKhPhT_S3_S3_S3_S3_S3_S3_jjjjjjjjS3_S1_S2_
GPGPU-Sim PTX: __cudaRegisterFunction __nv_static_51__38_cuda_device_runtime_compute_70_cpp1_ii_8b1a5d37__Z16memcpy_3d_deviceIjLi1ELi0ELi1EEvPKhPhT_S3_S3_S3_S3_S3_S3_jjjjjjjjS3_S1_S2_ : hostFun 0x0x557e6f3c4be0, fat_cubin_handle = 2
Warning: cannot find deviceFun __nv_static_51__38_cuda_device_runtime_compute_70_cpp1_ii_8b1a5d37__Z16memcpy_3d_deviceIjLi1ELi0ELi1EEvPKhPhT_S3_S3_S3_S3_S3_S3_jjjjjjjjS3_S1_S2_
GPGPU-Sim PTX: __cudaRegisterFunction __nv_static_51__38_cuda_device_runtime_compute_70_cpp1_ii_8b1a5d37__Z16memcpy_3d_deviceIjLi1ELi0ELi0EEvPKhPhT_S3_S3_S3_S3_S3_S3_jjjjjjjjS3_S1_S2_ : hostFun 0x0x557e6f3c4e60, fat_cubin_handle = 2
Warning: cannot find deviceFun __nv_static_51__38_cuda_device_runtime_compute_70_cpp1_ii_8b1a5d37__Z16memcpy_3d_deviceIjLi1ELi0ELi0EEvPKhPhT_S3_S3_S3_S3_S3_S3_jjjjjjjjS3_S1_S2_
GPGPU-Sim PTX: __cudaRegisterFunction __nv_static_51__38_cuda_device_runtime_compute_70_cpp1_ii_8b1a5d37__Z16memcpy_3d_deviceIjLi0ELi1ELi1EEvPKhPhT_S3_S3_S3_S3_S3_S3_jjjjjjjjS3_S1_S2_ : hostFun 0x0x557e6f3c50e0, fat_cubin_handle = 2
Warning: cannot find deviceFun __nv_static_51__38_cuda_device_runtime_compute_70_cpp1_ii_8b1a5d37__Z16memcpy_3d_deviceIjLi0ELi1ELi1EEvPKhPhT_S3_S3_S3_S3_S3_S3_jjjjjjjjS3_S1_S2_
GPGPU-Sim PTX: __cudaRegisterFunction __nv_static_51__38_cuda_device_runtime_compute_70_cpp1_ii_8b1a5d37__Z16memcpy_3d_deviceIjLi0ELi1ELi0EEvPKhPhT_S3_S3_S3_S3_S3_S3_jjjjjjjjS3_S1_S2_ : hostFun 0x0x557e6f3c5360, fat_cubin_handle = 2
Warning: cannot find deviceFun __nv_static_51__38_cuda_device_runtime_compute_70_cpp1_ii_8b1a5d37__Z16memcpy_3d_deviceIjLi0ELi1ELi0EEvPKhPhT_S3_S3_S3_S3_S3_S3_jjjjjjjjS3_S1_S2_
GPGPU-Sim PTX: __cudaRegisterFunction __nv_static_51__38_cuda_device_runtime_compute_70_cpp1_ii_8b1a5d37__Z16memcpy_3d_deviceIjLi0ELi0ELi1EEvPKhPhT_S3_S3_S3_S3_S3_S3_jjjjjjjjS3_S1_S2_ : hostFun 0x0x557e6f3c55e0, fat_cubin_handle = 2
Warning: cannot find deviceFun __nv_static_51__38_cuda_device_runtime_compute_70_cpp1_ii_8b1a5d37__Z16memcpy_3d_deviceIjLi0ELi0ELi1EEvPKhPhT_S3_S3_S3_S3_S3_S3_jjjjjjjjS3_S1_S2_
GPGPU-Sim PTX: __cudaRegisterFunction __nv_static_51__38_cuda_device_runtime_compute_70_cpp1_ii_8b1a5d37__Z16memcpy_3d_deviceIjLi0ELi0ELi0EEvPKhPhT_S3_S3_S3_S3_S3_S3_jjjjjjjjS3_S1_S2_ : hostFun 0x0x557e6f3c5860, fat_cubin_handle = 2
Warning: cannot find deviceFun __nv_static_51__38_cuda_device_runtime_compute_70_cpp1_ii_8b1a5d37__Z16memcpy_3d_deviceIjLi0ELi0ELi0EEvPKhPhT_S3_S3_S3_S3_S3_S3_jjjjjjjjS3_S1_S2_
GPGPU-Sim PTX: __cudaRegisterFunction __nv_static_51__38_cuda_device_runtime_compute_70_cpp1_ii_8b1a5d37__Z16memset_3d_deviceImLi1ELi1ELi1EEvPhhjT_S1_S1_S1_S1_jjjjjjjS1_S0_ : hostFun 0x0x557e6f3c5a80, fat_cubin_handle = 2
Warning: cannot find deviceFun __nv_static_51__38_cuda_device_runtime_compute_70_cpp1_ii_8b1a5d37__Z16memset_3d_deviceImLi1ELi1ELi1EEvPhhjT_S1_S1_S1_S1_jjjjjjjS1_S0_
GPGPU-Sim PTX: __cudaRegisterFunction __nv_static_51__38_cuda_device_runtime_compute_70_cpp1_ii_8b1a5d37__Z16memset_3d_deviceImLi1ELi1ELi0EEvPhhjT_S1_S1_S1_S1_jjjjjjjS1_S0_ : hostFun 0x0x557e6f3c5ca0, fat_cubin_handle = 2
Warning: cannot find deviceFun __nv_static_51__38_cuda_device_runtime_compute_70_cpp1_ii_8b1a5d37__Z16memset_3d_deviceImLi1ELi1ELi0EEvPhhjT_S1_S1_S1_S1_jjjjjjjS1_S0_
GPGPU-Sim PTX: __cudaRegisterFunction __nv_static_51__38_cuda_device_runtime_compute_70_cpp1_ii_8b1a5d37__Z16memset_3d_deviceImLi1ELi0ELi1EEvPhhjT_S1_S1_S1_S1_jjjjjjjS1_S0_ : hostFun 0x0x557e6f3c5ec0, fat_cubin_handle = 2
Warning: cannot find deviceFun __nv_static_51__38_cuda_device_runtime_compute_70_cpp1_ii_8b1a5d37__Z16memset_3d_deviceImLi1ELi0ELi1EEvPhhjT_S1_S1_S1_S1_jjjjjjjS1_S0_
GPGPU-Sim PTX: __cudaRegisterFunction __nv_static_51__38_cuda_device_runtime_compute_70_cpp1_ii_8b1a5d37__Z16memset_3d_deviceImLi1ELi0ELi0EEvPhhjT_S1_S1_S1_S1_jjjjjjjS1_S0_ : hostFun 0x0x557e6f3c60e0, fat_cubin_handle = 2
Warning: cannot find deviceFun __nv_static_51__38_cuda_device_runtime_compute_70_cpp1_ii_8b1a5d37__Z16memset_3d_deviceImLi1ELi0ELi0EEvPhhjT_S1_S1_S1_S1_jjjjjjjS1_S0_
GPGPU-Sim PTX: __cudaRegisterFunction __nv_static_51__38_cuda_device_runtime_compute_70_cpp1_ii_8b1a5d37__Z16memset_3d_deviceImLi0ELi1ELi1EEvPhhjT_S1_S1_S1_S1_jjjjjjjS1_S0_ : hostFun 0x0x557e6f3c6300, fat_cubin_handle = 2
Warning: cannot find deviceFun __nv_static_51__38_cuda_device_runtime_compute_70_cpp1_ii_8b1a5d37__Z16memset_3d_deviceImLi0ELi1ELi1EEvPhhjT_S1_S1_S1_S1_jjjjjjjS1_S0_
GPGPU-Sim PTX: __cudaRegisterFunction __nv_static_51__38_cuda_device_runtime_compute_70_cpp1_ii_8b1a5d37__Z16memset_3d_deviceImLi0ELi1ELi0EEvPhhjT_S1_S1_S1_S1_jjjjjjjS1_S0_ : hostFun 0x0x557e6f3c6520, fat_cubin_handle = 2
Warning: cannot find deviceFun __nv_static_51__38_cuda_device_runtime_compute_70_cpp1_ii_8b1a5d37__Z16memset_3d_deviceImLi0ELi1ELi0EEvPhhjT_S1_S1_S1_S1_jjjjjjjS1_S0_
GPGPU-Sim PTX: __cudaRegisterFunction __nv_static_51__38_cuda_device_runtime_compute_70_cpp1_ii_8b1a5d37__Z16memset_3d_deviceImLi0ELi0ELi1EEvPhhjT_S1_S1_S1_S1_jjjjjjjS1_S0_ : hostFun 0x0x557e6f3c6740, fat_cubin_handle = 2
Warning: cannot find deviceFun __nv_static_51__38_cuda_device_runtime_compute_70_cpp1_ii_8b1a5d37__Z16memset_3d_deviceImLi0ELi0ELi1EEvPhhjT_S1_S1_S1_S1_jjjjjjjS1_S0_
GPGPU-Sim PTX: __cudaRegisterFunction __nv_static_51__38_cuda_device_runtime_compute_70_cpp1_ii_8b1a5d37__Z16memset_3d_deviceImLi0ELi0ELi0EEvPhhjT_S1_S1_S1_S1_jjjjjjjS1_S0_ : hostFun 0x0x557e6f3c6960, fat_cubin_handle = 2
Warning: cannot find deviceFun __nv_static_51__38_cuda_device_runtime_compute_70_cpp1_ii_8b1a5d37__Z16memset_3d_deviceImLi0ELi0ELi0EEvPhhjT_S1_S1_S1_S1_jjjjjjjS1_S0_
GPGPU-Sim PTX: __cudaRegisterFunction __nv_static_51__38_cuda_device_runtime_compute_70_cpp1_ii_8b1a5d37__Z16memset_3d_deviceIjLi1ELi1ELi1EEvPhhjT_S1_S1_S1_S1_jjjjjjjS1_S0_ : hostFun 0x0x557e6f3c6b80, fat_cubin_handle = 2
Warning: cannot find deviceFun __nv_static_51__38_cuda_device_runtime_compute_70_cpp1_ii_8b1a5d37__Z16memset_3d_deviceIjLi1ELi1ELi1EEvPhhjT_S1_S1_S1_S1_jjjjjjjS1_S0_
GPGPU-Sim PTX: __cudaRegisterFunction __nv_static_51__38_cuda_device_runtime_compute_70_cpp1_ii_8b1a5d37__Z16memset_3d_deviceIjLi1ELi1ELi0EEvPhhjT_S1_S1_S1_S1_jjjjjjjS1_S0_ : hostFun 0x0x557e6f3c6da0, fat_cubin_handle = 2
Warning: cannot find deviceFun __nv_static_51__38_cuda_device_runtime_compute_70_cpp1_ii_8b1a5d37__Z16memset_3d_deviceIjLi1ELi1ELi0EEvPhhjT_S1_S1_S1_S1_jjjjjjjS1_S0_
GPGPU-Sim PTX: __cudaRegisterFunction __nv_static_51__38_cuda_device_runtime_compute_70_cpp1_ii_8b1a5d37__Z16memset_3d_deviceIjLi1ELi0ELi1EEvPhhjT_S1_S1_S1_S1_jjjjjjjS1_S0_ : hostFun 0x0x557e6f3c6fc0, fat_cubin_handle = 2
Warning: cannot find deviceFun __nv_static_51__38_cuda_device_runtime_compute_70_cpp1_ii_8b1a5d37__Z16memset_3d_deviceIjLi1ELi0ELi1EEvPhhjT_S1_S1_S1_S1_jjjjjjjS1_S0_
GPGPU-Sim PTX: __cudaRegisterFunction __nv_static_51__38_cuda_device_runtime_compute_70_cpp1_ii_8b1a5d37__Z16memset_3d_deviceIjLi1ELi0ELi0EEvPhhjT_S1_S1_S1_S1_jjjjjjjS1_S0_ : hostFun 0x0x557e6f3c71e0, fat_cubin_handle = 2
Warning: cannot find deviceFun __nv_static_51__38_cuda_device_runtime_compute_70_cpp1_ii_8b1a5d37__Z16memset_3d_deviceIjLi1ELi0ELi0EEvPhhjT_S1_S1_S1_S1_jjjjjjjS1_S0_
GPGPU-Sim PTX: __cudaRegisterFunction __nv_static_51__38_cuda_device_runtime_compute_70_cpp1_ii_8b1a5d37__Z16memset_3d_deviceIjLi0ELi1ELi1EEvPhhjT_S1_S1_S1_S1_jjjjjjjS1_S0_ : hostFun 0x0x557e6f3c7400, fat_cubin_handle = 2
Warning: cannot find deviceFun __nv_static_51__38_cuda_device_runtime_compute_70_cpp1_ii_8b1a5d37__Z16memset_3d_deviceIjLi0ELi1ELi1EEvPhhjT_S1_S1_S1_S1_jjjjjjjS1_S0_
GPGPU-Sim PTX: __cudaRegisterFunction __nv_static_51__38_cuda_device_runtime_compute_70_cpp1_ii_8b1a5d37__Z16memset_3d_deviceIjLi0ELi1ELi0EEvPhhjT_S1_S1_S1_S1_jjjjjjjS1_S0_ : hostFun 0x0x557e6f3c7620, fat_cubin_handle = 2
Warning: cannot find deviceFun __nv_static_51__38_cuda_device_runtime_compute_70_cpp1_ii_8b1a5d37__Z16memset_3d_deviceIjLi0ELi1ELi0EEvPhhjT_S1_S1_S1_S1_jjjjjjjS1_S0_
GPGPU-Sim PTX: __cudaRegisterFunction __nv_static_51__38_cuda_device_runtime_compute_70_cpp1_ii_8b1a5d37__Z16memset_3d_deviceIjLi0ELi0ELi1EEvPhhjT_S1_S1_S1_S1_jjjjjjjS1_S0_ : hostFun 0x0x557e6f3c7840, fat_cubin_handle = 2
Warning: cannot find deviceFun __nv_static_51__38_cuda_device_runtime_compute_70_cpp1_ii_8b1a5d37__Z16memset_3d_deviceIjLi0ELi0ELi1EEvPhhjT_S1_S1_S1_S1_jjjjjjjS1_S0_
GPGPU-Sim PTX: __cudaRegisterFunction __nv_static_51__38_cuda_device_runtime_compute_70_cpp1_ii_8b1a5d37__Z16memset_3d_deviceIjLi0ELi0ELi0EEvPhhjT_S1_S1_S1_S1_jjjjjjjS1_S0_ : hostFun 0x0x557e6f3c7a60, fat_cubin_handle = 2
Warning: cannot find deviceFun __nv_static_51__38_cuda_device_runtime_compute_70_cpp1_ii_8b1a5d37__Z16memset_3d_deviceIjLi0ELi0ELi0EEvPhhjT_S1_S1_S1_S1_jjjjjjjS1_S0_
GPGPU-Sim PTX: __cudaRegisterVar: hostVar = 0x557e6f65f100; deviceAddress = __nv_static_51__38_cuda_device_runtime_compute_70_cpp1_ii_8b1a5d37_set_kernel32; deviceName = __nv_static_51__38_cuda_device_runtime_compute_70_cpp1_ii_8b1a5d37_set_kernel32
GPGPU-Sim PTX: __cudaRegisterVar: Registering const memory space of 64 bytes
GPGPU-Sim PTX registering constant __nv_static_51__38_cuda_device_runtime_compute_70_cpp1_ii_8b1a5d37_set_kernel32 (64 bytes) to name mapping
GPGPU-Sim PTX: __cudaRegisterVar: hostVar = 0x557e6f65f140; deviceAddress = __nv_static_51__38_cuda_device_runtime_compute_70_cpp1_ii_8b1a5d37_set_kernel64; deviceName = __nv_static_51__38_cuda_device_runtime_compute_70_cpp1_ii_8b1a5d37_set_kernel64
GPGPU-Sim PTX: __cudaRegisterVar: Registering const memory space of 64 bytes
GPGPU-Sim PTX registering constant __nv_static_51__38_cuda_device_runtime_compute_70_cpp1_ii_8b1a5d37_set_kernel64 (64 bytes) to name mapping
GPGPU-Sim PTX: __cudaRegisterVar: hostVar = 0x557e6f65f180; deviceAddress = __nv_static_51__38_cuda_device_runtime_compute_70_cpp1_ii_8b1a5d37_cpy_kernel32; deviceName = __nv_static_51__38_cuda_device_runtime_compute_70_cpp1_ii_8b1a5d37_cpy_kernel32
GPGPU-Sim PTX: __cudaRegisterVar: Registering const memory space of 64 bytes
GPGPU-Sim PTX registering constant __nv_static_51__38_cuda_device_runtime_compute_70_cpp1_ii_8b1a5d37_cpy_kernel32 (64 bytes) to name mapping
GPGPU-Sim PTX: __cudaRegisterVar: hostVar = 0x557e6f65f1c0; deviceAddress = __nv_static_51__38_cuda_device_runtime_compute_70_cpp1_ii_8b1a5d37_cpy_kernel64; deviceName = __nv_static_51__38_cuda_device_runtime_compute_70_cpp1_ii_8b1a5d37_cpy_kernel64
GPGPU-Sim PTX: __cudaRegisterVar: Registering const memory space of 64 bytes
GPGPU-Sim PTX registering constant __nv_static_51__38_cuda_device_runtime_compute_70_cpp1_ii_8b1a5d37_cpy_kernel64 (64 bytes) to name mapping
GPGPU-Sim PTX: __cudaRegisterVar: hostVar = 0x557e6f65e380; deviceAddress = __nv_static_51__38_cuda_device_runtime_compute_70_cpp1_ii_8b1a5d37_cudartErrorTableArr; deviceName = __nv_static_51__38_cuda_device_runtime_compute_70_cpp1_ii_8b1a5d37_cudartErrorTableArr
GPGPU-Sim PTX: __cudaRegisterVar: Registering const memory space of 1992 bytes
GPGPU-Sim PTX registering global __nv_static_51__38_cuda_device_runtime_compute_70_cpp1_ii_8b1a5d37_cudartErrorTableArr hostVar to name mapping
GPGPU-Sim PTX: __cudaRegisterVar: hostVar = 0x557e6f65f0e0; deviceAddress = cudartErrorTable; deviceName = cudartErrorTable
GPGPU-Sim PTX: __cudaRegisterVar: Registering const memory space of 8 bytes
GPGPU-Sim PTX registering global cudartErrorTable hostVar to name mapping
GPGPU-Sim PTX: __cudaRegisterVar: hostVar = 0x557e6f3ca900; deviceAddress = cudartErrorTableEntryCount; deviceName = cudartErrorTableEntryCount
GPGPU-Sim PTX: __cudaRegisterVar: Registering const memory space of 4 bytes
GPGPU-Sim PTX registering global cudartErrorTableEntryCount hostVar to name mapping
GPGPU-Sim PTX: __cudaRegisterVar: hostVar = 0x557e6f3ca920; deviceAddress = __nv_static_51__38_cuda_device_runtime_compute_70_cpp1_ii_8b1a5d37_cudartErrorCnpMapArr; deviceName = __nv_static_51__38_cuda_device_runtime_compute_70_cpp1_ii_8b1a5d37_cudartErrorCnpMapArr
GPGPU-Sim PTX: __cudaRegisterVar: Registering const memory space of 104 bytes
GPGPU-Sim PTX registering global __nv_static_51__38_cuda_device_runtime_compute_70_cpp1_ii_8b1a5d37_cudartErrorCnpMapArr hostVar to name mapping
GPGPU-Sim PTX: __cudaRegisterVar: hostVar = 0x557e6f65f0e8; deviceAddress = cudartErrorCnpMap; deviceName = cudartErrorCnpMap
GPGPU-Sim PTX: __cudaRegisterVar: Registering const memory space of 8 bytes
GPGPU-Sim PTX registering global cudartErrorCnpMap hostVar to name mapping
GPGPU-Sim PTX: __cudaRegisterVar: hostVar = 0x557e6f3ca904; deviceAddress = cudartErrorCnpMapEntryCount; deviceName = cudartErrorCnpMapEntryCount
GPGPU-Sim PTX: __cudaRegisterVar: Registering const memory space of 4 bytes
GPGPU-Sim PTX registering global cudartErrorCnpMapEntryCount hostVar to name mapping
GPGPU-Sim PTX: __cudaRegisterVar: hostVar = 0x557e6f65f0f0; deviceAddress = __CNPRT_VERSION_NUMBER__; deviceName = __CNPRT_VERSION_NUMBER__
GPGPU-Sim PTX: __cudaRegisterVar: Registering const memory space of 4 bytes
GPGPU-Sim PTX registering global __CNPRT_VERSION_NUMBER__ hostVar to name mapping
GPGPU-Sim PTX: Setting up arguments for 432 bytes starting at 0x7ffd3a0adae0..

GPGPU-Sim PTX: cudaLaunch for 0x0x557e6f3bb49e (mode=performance simulation) on stream 0
GPGPU-Sim PTX: finding reconvergence points for '_ZN7cutlass4gemm11gemm_kernelINS0_4GemmINS0_14WmmaGemmTraitsILNS_12MatrixLayout4KindE0ELS5_1ENS_5ShapeILi64ELi128ELi128ELi1EEEfNS0_13LinearScalingIfNS0_19FragmentMultiplyAddIfEEEEfNS6_ILi64ELi32ELi64ELi1EEENS6_ILi16ELi16ELi16ELi1EEELi8ELi8EiNS0_20WmmaGemmTraitsHelperILS5_0ELS5_1ES7_ffSB_SC_SD_Li8ELi8EiEEEEEEEEvNT_6ParamsE'...
GPGPU-Sim PTX: Finding dominators for '_ZN7cutlass4gemm11gemm_kernelINS0_4GemmINS0_14WmmaGemmTraitsILNS_12MatrixLayout4KindE0ELS5_1ENS_5ShapeILi64ELi128ELi128ELi1EEEfNS0_13LinearScalingIfNS0_19FragmentMultiplyAddIfEEEEfNS6_ILi64ELi32ELi64ELi1EEENS6_ILi16ELi16ELi16ELi1EEELi8ELi8EiNS0_20WmmaGemmTraitsHelperILS5_0ELS5_1ES7_ffSB_SC_SD_Li8ELi8EiEEEEEEEEvNT_6ParamsE'...
GPGPU-Sim PTX: Finding immediate dominators for '_ZN7cutlass4gemm11gemm_kernelINS0_4GemmINS0_14WmmaGemmTraitsILNS_12MatrixLayout4KindE0ELS5_1ENS_5ShapeILi64ELi128ELi128ELi1EEEfNS0_13LinearScalingIfNS0_19FragmentMultiplyAddIfEEEEfNS6_ILi64ELi32ELi64ELi1EEENS6_ILi16ELi16ELi16ELi1EEELi8ELi8EiNS0_20WmmaGemmTraitsHelperILS5_0ELS5_1ES7_ffSB_SC_SD_Li8ELi8EiEEEEEEEEvNT_6ParamsE'...
GPGPU-Sim PTX: Finding postdominators for '_ZN7cutlass4gemm11gemm_kernelINS0_4GemmINS0_14WmmaGemmTraitsILNS_12MatrixLayout4KindE0ELS5_1ENS_5ShapeILi64ELi128ELi128ELi1EEEfNS0_13LinearScalingIfNS0_19FragmentMultiplyAddIfEEEEfNS6_ILi64ELi32ELi64ELi1EEENS6_ILi16ELi16ELi16ELi1EEELi8ELi8EiNS0_20WmmaGemmTraitsHelperILS5_0ELS5_1ES7_ffSB_SC_SD_Li8ELi8EiEEEEEEEEvNT_6ParamsE'...
GPGPU-Sim PTX: Finding immediate postdominators for '_ZN7cutlass4gemm11gemm_kernelINS0_4GemmINS0_14WmmaGemmTraitsILNS_12MatrixLayout4KindE0ELS5_1ENS_5ShapeILi64ELi128ELi128ELi1EEEfNS0_13LinearScalingIfNS0_19FragmentMultiplyAddIfEEEEfNS6_ILi64ELi32ELi64ELi1EEENS6_ILi16ELi16ELi16ELi1EEELi8ELi8EiNS0_20WmmaGemmTraitsHelperILS5_0ELS5_1ES7_ffSB_SC_SD_Li8ELi8EiEEEEEEEEvNT_6ParamsE'...
GPGPU-Sim PTX: pre-decoding instructions for '_ZN7cutlass4gemm11gemm_kernelINS0_4GemmINS0_14WmmaGemmTraitsILNS_12MatrixLayout4KindE0ELS5_1ENS_5ShapeILi64ELi128ELi128ELi1EEEfNS0_13LinearScalingIfNS0_19FragmentMultiplyAddIfEEEEfNS6_ILi64ELi32ELi64ELi1EEENS6_ILi16ELi16ELi16ELi1EEELi8ELi8EiNS0_20WmmaGemmTraitsHelperILS5_0ELS5_1ES7_ffSB_SC_SD_Li8ELi8EiEEEEEEEEvNT_6ParamsE'...
GPGPU-Sim PTX: reconvergence points for _ZN7cutlass4gemm11gemm_kernelINS0_4GemmINS0_14WmmaGemmTraitsILNS_12MatrixLayout4KindE0ELS5_1ENS_5ShapeILi64ELi128ELi128ELi1EEEfNS0_13LinearScalingIfNS0_19FragmentMultiplyAddIfEEEEfNS6_ILi64ELi32ELi64ELi1EEENS6_ILi16ELi16ELi16ELi1EEELi8ELi8EiNS0_20WmmaGemmTraitsHelperILS5_0ELS5_1ES7_ffSB_SC_SD_Li8ELi8EiEEEEEEEEvNT_6ParamsE...
GPGPU-Sim PTX:  1 (potential) branch divergence @  PC=0x198 (cutlass-test.1.sm_70.ptx:92) @%p11 bra BB0_2;
GPGPU-Sim PTX:    immediate post dominator      @  PC=0x210 (cutlass-test.1.sm_70.ptx:130) mov.u32 %r1278, %ctaid.y;
GPGPU-Sim PTX:  2 (potential) branch divergence @  PC=0x2d8 (cutlass-test.1.sm_70.ptx:155) @%p11 bra BB0_4;
GPGPU-Sim PTX:    immediate post dominator      @  PC=0x350 (cutlass-test.1.sm_70.ptx:193) setp.lt.s32%p22, %r23, 64;
GPGPU-Sim PTX:  3 (potential) branch divergence @  PC=0x358 (cutlass-test.1.sm_70.ptx:194) @%p22 bra BB0_7;
GPGPU-Sim PTX:    immediate post dominator      @  PC=0x430 (cutlass-test.1.sm_70.ptx:228) and.b32 %r1307, %r1956, 1;
GPGPU-Sim PTX:  4 (potential) branch divergence @  PC=0x360 (cutlass-test.1.sm_70.ptx:195) bra.uni BB0_5;
GPGPU-Sim PTX:    immediate post dominator      @  PC=0x3c8 (cutlass-test.1.sm_70.ptx:212) setp.gt.s32%p23, %r23, 64;
GPGPU-Sim PTX:  5 (potential) branch divergence @  PC=0x3c0 (cutlass-test.1.sm_70.ptx:209) bra.uni BB0_8;
GPGPU-Sim PTX:    immediate post dominator      @  PC=0x430 (cutlass-test.1.sm_70.ptx:228) and.b32 %r1307, %r1956, 1;
GPGPU-Sim PTX:  6 (potential) branch divergence @  PC=0x3d0 (cutlass-test.1.sm_70.ptx:213) @%p23 bra BB0_8;
GPGPU-Sim PTX:    immediate post dominator      @  PC=0x430 (cutlass-test.1.sm_70.ptx:228) and.b32 %r1307, %r1956, 1;
GPGPU-Sim PTX:  7 (potential) branch divergence @  PC=0x468 (cutlass-test.1.sm_70.ptx:235) @!%p26 bra BB0_10;
GPGPU-Sim PTX:    immediate post dominator      @  PC=0x480 (cutlass-test.1.sm_70.ptx:242) cvt.s64.s32%rd9, %r10;
GPGPU-Sim PTX:  8 (potential) branch divergence @  PC=0x470 (cutlass-test.1.sm_70.ptx:236) bra.uni BB0_9;
GPGPU-Sim PTX:    immediate post dominator      @  PC=0x478 (cutlass-test.1.sm_70.ptx:239) ld.global.v4.u32 {%r2171, %r2170, %r2173, %r2172}, [%rd6];
GPGPU-Sim PTX:  9 (potential) branch divergence @  PC=0x4d0 (cutlass-test.1.sm_70.ptx:252) @%p27 bra BB0_12;
GPGPU-Sim PTX:    immediate post dominator      @  PC=0x4e0 (cutlass-test.1.sm_70.ptx:257) add.s64 %rd12, %rd10, %rd9;
GPGPU-Sim PTX: 10 (potential) branch divergence @  PC=0x528 (cutlass-test.1.sm_70.ptx:266) @%p28 bra BB0_14;
GPGPU-Sim PTX:    immediate post dominator      @  PC=0x538 (cutlass-test.1.sm_70.ptx:271) add.s64 %rd14, %rd12, %rd9;
GPGPU-Sim PTX: 11 (potential) branch divergence @  PC=0x580 (cutlass-test.1.sm_70.ptx:280) @%p29 bra BB0_16;
GPGPU-Sim PTX:    immediate post dominator      @  PC=0x590 (cutlass-test.1.sm_70.ptx:285) cvt.s64.s32%rd134, %r11;
GPGPU-Sim PTX: 12 (potential) branch divergence @  PC=0x5e0 (cutlass-test.1.sm_70.ptx:295) @!%p30 bra BB0_18;
GPGPU-Sim PTX:    immediate post dominator      @  PC=0x5f8 (cutlass-test.1.sm_70.ptx:302) cvt.s64.s32%rd17, %r1;
GPGPU-Sim PTX: 13 (potential) branch divergence @  PC=0x5e8 (cutlass-test.1.sm_70.ptx:296) bra.uni BB0_17;
GPGPU-Sim PTX:    immediate post dominator      @  PC=0x5f0 (cutlass-test.1.sm_70.ptx:299) ld.global.v4.u32 {%r2187, %r2186, %r2189, %r2188}, [%rd8];
GPGPU-Sim PTX: 14 (potential) branch divergence @  PC=0x648 (cutlass-test.1.sm_70.ptx:312) @%p31 bra BB0_20;
GPGPU-Sim PTX:    immediate post dominator      @  PC=0x658 (cutlass-test.1.sm_70.ptx:317) add.s64 %rd20, %rd18, %rd17;
GPGPU-Sim PTX: 15 (potential) branch divergence @  PC=0x6a0 (cutlass-test.1.sm_70.ptx:326) @%p32 bra BB0_22;
GPGPU-Sim PTX:    immediate post dominator      @  PC=0x6b0 (cutlass-test.1.sm_70.ptx:331) add.s64 %rd22, %rd20, %rd17;
GPGPU-Sim PTX: 16 (potential) branch divergence @  PC=0x6f0 (cutlass-test.1.sm_70.ptx:339) @%p33 bra BB0_24;
GPGPU-Sim PTX:    immediate post dominator      @  PC=0x700 (cutlass-test.1.sm_70.ptx:344) cvt.s64.s32%rd140, %r2;
GPGPU-Sim PTX: 17 (potential) branch divergence @  PC=0x7b0 (cutlass-test.1.sm_70.ptx:366) @%p34 bra BB0_26;
GPGPU-Sim PTX:    immediate post dominator      @  PC=0x828 (cutlass-test.1.sm_70.ptx:404) mul.wide.s32 %rd150, %r104, 2;
GPGPU-Sim PTX: 18 (potential) branch divergence @  PC=0x8e0 (cutlass-test.1.sm_70.ptx:430) @%p35 bra BB0_27;
GPGPU-Sim PTX:    immediate post dominator      @  PC=0x1808 (cutlass-test.1.sm_70.ptx:951) setp.lt.s32%p47, %r2314, -63;
GPGPU-Sim PTX: 19 (potential) branch divergence @  PC=0xaf0 (cutlass-test.1.sm_70.ptx:499) @%p36 bra BB0_31;
GPGPU-Sim PTX:    immediate post dominator      @  PC=0xc80 (cutlass-test.1.sm_70.ptx:552) and.b32 %r1562, %r1956, 1;
GPGPU-Sim PTX: 20 (potential) branch divergence @  PC=0xc90 (cutlass-test.1.sm_70.ptx:554) @!%p38 bra BB0_33;
GPGPU-Sim PTX:    immediate post dominator      @  PC=0xca8 (cutlass-test.1.sm_70.ptx:561) mul.wide.s32 %rd161, %r10, 2;
GPGPU-Sim PTX: 21 (potential) branch divergence @  PC=0xc98 (cutlass-test.1.sm_70.ptx:555) bra.uni BB0_32;
GPGPU-Sim PTX:    immediate post dominator      @  PC=0xca0 (cutlass-test.1.sm_70.ptx:558) ld.global.v4.u32 {%r2171, %r2170, %r2173, %r2172}, [%rd422];
GPGPU-Sim PTX: 22 (potential) branch divergence @  PC=0xcc8 (cutlass-test.1.sm_70.ptx:565) @%p39 bra BB0_35;
GPGPU-Sim PTX:    immediate post dominator      @  PC=0xcd8 (cutlass-test.1.sm_70.ptx:570) add.s64 %rd163, %rd9, %rd9;
GPGPU-Sim PTX: 23 (potential) branch divergence @  PC=0xd00 (cutlass-test.1.sm_70.ptx:575) @%p40 bra BB0_37;
GPGPU-Sim PTX:    immediate post dominator      @  PC=0xd10 (cutlass-test.1.sm_70.ptx:580) add.s64 %rd167, %rd163, %rd9;
GPGPU-Sim PTX: 24 (potential) branch divergence @  PC=0xd38 (cutlass-test.1.sm_70.ptx:585) @%p41 bra BB0_39;
GPGPU-Sim PTX:    immediate post dominator      @  PC=0xd48 (cutlass-test.1.sm_70.ptx:590) add.s64 %rd173, %rd167, %rd134;
GPGPU-Sim PTX: 25 (potential) branch divergence @  PC=0xd70 (cutlass-test.1.sm_70.ptx:595) @!%p42 bra BB0_41;
GPGPU-Sim PTX:    immediate post dominator      @  PC=0xd88 (cutlass-test.1.sm_70.ptx:602) mul.wide.s32 %rd175, %r1, 2;
GPGPU-Sim PTX: 26 (potential) branch divergence @  PC=0xd78 (cutlass-test.1.sm_70.ptx:596) bra.uni BB0_40;
GPGPU-Sim PTX:    immediate post dominator      @  PC=0xd80 (cutlass-test.1.sm_70.ptx:599) ld.global.v4.u32 {%r2187, %r2186, %r2189, %r2188}, [%rd421];
GPGPU-Sim PTX: 27 (potential) branch divergence @  PC=0xda8 (cutlass-test.1.sm_70.ptx:606) @%p43 bra BB0_43;
GPGPU-Sim PTX:    immediate post dominator      @  PC=0xdb8 (cutlass-test.1.sm_70.ptx:611) add.s64 %rd177, %rd17, %rd17;
GPGPU-Sim PTX: 28 (potential) branch divergence @  PC=0xde0 (cutlass-test.1.sm_70.ptx:616) @%p44 bra BB0_45;
GPGPU-Sim PTX:    immediate post dominator      @  PC=0xdf0 (cutlass-test.1.sm_70.ptx:621) add.s64 %rd181, %rd177, %rd17;
GPGPU-Sim PTX: 29 (potential) branch divergence @  PC=0xe18 (cutlass-test.1.sm_70.ptx:626) @%p45 bra BB0_47;
GPGPU-Sim PTX:    immediate post dominator      @  PC=0xe28 (cutlass-test.1.sm_70.ptx:631) add.s32 %r1604, %r104, 16;
GPGPU-Sim PTX: 30 (potential) branch divergence @  PC=0x1600 (cutlass-test.1.sm_70.ptx:882) @%p46 bra BB0_29;
GPGPU-Sim PTX:    immediate post dominator      @  PC=0x1608 (cutlass-test.1.sm_70.ptx:883) bra.uni BB0_48;
GPGPU-Sim PTX: 31 (potential) branch divergence @  PC=0x1608 (cutlass-test.1.sm_70.ptx:883) bra.uni BB0_48;
GPGPU-Sim PTX:    immediate post dominator      @  PC=0x1808 (cutlass-test.1.sm_70.ptx:951) setp.lt.s32%p47, %r2314, -63;
GPGPU-Sim PTX: 32 (potential) branch divergence @  PC=0x1810 (cutlass-test.1.sm_70.ptx:952) @%p47 bra BB0_51;
GPGPU-Sim PTX:    immediate post dominator      @  PC=0x1ea8 (cutlass-test.1.sm_70.ptx:1168) ld.param.f32 %f1227, [_ZN7cutlass4gemm11gemm_kernelINS0_4GemmINS0_14WmmaGemmTraitsILNS_12MatrixLayout4KindE0ELS5_1ENS_5ShapeILi64ELi128ELi128ELi1EEEfNS0_13LinearScalingIfNS0_19FragmentMultiplyAddIfEEEEfNS6_ILi64ELi32ELi64ELi1EEENS6_ILi16ELi16ELi16ELi1EEELi8ELi8EiNS0_20WmmaGemmTraitsHelperILS5_0ELS5_1ES7_ffSB_SC_SD_Li8ELi8EiEEEEEEEEvNT_6ParamsE_param_0+428];
GPGPU-Sim PTX: 33 (potential) branch divergence @  PC=0x1ea0 (cutlass-test.1.sm_70.ptx:1165) @%p48 bra BB0_50;
GPGPU-Sim PTX:    immediate post dominator      @  PC=0x1ea8 (cutlass-test.1.sm_70.ptx:1168) ld.param.f32 %f1227, [_ZN7cutlass4gemm11gemm_kernelINS0_4GemmINS0_14WmmaGemmTraitsILNS_12MatrixLayout4KindE0ELS5_1ENS_5ShapeILi64ELi128ELi128ELi1EEEfNS0_13LinearScalingIfNS0_19FragmentMultiplyAddIfEEEEfNS6_ILi64ELi32ELi64ELi1EEENS6_ILi16ELi16ELi16ELi1EEELi8ELi8EiNS0_20WmmaGemmTraitsHelperILS5_0ELS5_1ES7_ffSB_SC_SD_Li8ELi8EiEEEEEEEEvNT_6ParamsE_param_0+428];
GPGPU-Sim PTX: 34 (potential) branch divergence @  PC=0x1f60 (cutlass-test.1.sm_70.ptx:1191) @%p49 bra BB0_120;
GPGPU-Sim PTX:    immediate post dominator      @  PC=0x3f98 (cutlass-test.1.sm_70.ptx:2504) ret;
GPGPU-Sim PTX: 35 (potential) branch divergence @  PC=0x1f68 (cutlass-test.1.sm_70.ptx:1192) bra.uni BB0_52;
GPGPU-Sim PTX:    immediate post dominator      @  PC=0x2c18 (cutlass-test.1.sm_70.ptx:1708) ld.param.u64 %rd414, [_ZN7cutlass4gemm11gemm_kernelINS0_4GemmINS0_14WmmaGemmTraitsILNS_12MatrixLayout4KindE0ELS5_1ENS_5ShapeILi64ELi128ELi128ELi1EEEfNS0_13LinearScalingIfNS0_19FragmentMultiplyAddIfEEEEfNS6_ILi64ELi32ELi64ELi1EEENS6_ILi16ELi16ELi16ELi1EEELi8ELi8EiNS0_20WmmaGemmTraitsHelperILS5_0ELS5_1ES7_ffSB_SC_SD_Li8ELi8EiEEEEEEEEvNT_6ParamsE_param_0+280];
GPGPU-Sim PTX: 36 (potential) branch divergence @  PC=0x1f78 (cutlass-test.1.sm_70.ptx:1196) @%p148 bra BB0_122;
GPGPU-Sim PTX:    immediate post dominator      @  PC=0x1ff0 (cutlass-test.1.sm_70.ptx:1234) shl.b32 %r1873, %r19, 2;
GPGPU-Sim PTX: 37 (potential) branch divergence @  PC=0x2010 (cutlass-test.1.sm_70.ptx:1238) @%p149 bra BB0_124;
GPGPU-Sim PTX:    immediate post dominator      @  PC=0x2088 (cutlass-test.1.sm_70.ptx:1276) mul.wide.s32 %rd353, %r1018, 4;
GPGPU-Sim PTX: 38 (potential) branch divergence @  PC=0x2260 (cutlass-test.1.sm_70.ptx:1335) @%p152 bra BB0_126;
GPGPU-Sim PTX:    immediate post dominator      @  PC=0x22a0 (cutlass-test.1.sm_70.ptx:1346) ld.param.f32 %f1232, [_ZN7cutlass4gemm11gemm_kernelINS0_4GemmINS0_14WmmaGemmTraitsILNS_12MatrixLayout4KindE0ELS5_1ENS_5ShapeILi64ELi128ELi128ELi1EEEfNS0_13LinearScalingIfNS0_19FragmentMultiplyAddIfEEEEfNS6_ILi64ELi32ELi64ELi1EEENS6_ILi16ELi16ELi16ELi1EEELi8ELi8EiNS0_20WmmaGemmTraitsHelperILS5_0ELS5_1ES7_ffSB_SC_SD_Li8ELi8EiEEEEEEEEvNT_6ParamsE_param_0+424];
GPGPU-Sim PTX: 39 (potential) branch divergence @  PC=0x2490 (cutlass-test.1.sm_70.ptx:1408) @!%p155 bra BB0_128;
GPGPU-Sim PTX:    immediate post dominator      @  PC=0x24b8 (cutlass-test.1.sm_70.ptx:1417) add.s64 %rd99, %rd98, %rd97;
GPGPU-Sim PTX: 40 (potential) branch divergence @  PC=0x2498 (cutlass-test.1.sm_70.ptx:1409) bra.uni BB0_127;
GPGPU-Sim PTX:    immediate post dominator      @  PC=0x24a0 (cutlass-test.1.sm_70.ptx:1412) shl.b64 %rd360, %rd98, 2;
GPGPU-Sim PTX: 41 (potential) branch divergence @  PC=0x24d8 (cutlass-test.1.sm_70.ptx:1421) @!%p158 bra BB0_130;
GPGPU-Sim PTX:    immediate post dominator      @  PC=0x2500 (cutlass-test.1.sm_70.ptx:1430) add.s64 %rd100, %rd99, %rd97;
GPGPU-Sim PTX: 42 (potential) branch divergence @  PC=0x24e0 (cutlass-test.1.sm_70.ptx:1422) bra.uni BB0_129;
GPGPU-Sim PTX:    immediate post dominator      @  PC=0x24e8 (cutlass-test.1.sm_70.ptx:1425) shl.b64 %rd363, %rd99, 2;
GPGPU-Sim PTX: 43 (potential) branch divergence @  PC=0x2520 (cutlass-test.1.sm_70.ptx:1434) @!%p161 bra BB0_132;
GPGPU-Sim PTX:    immediate post dominator      @  PC=0x2548 (cutlass-test.1.sm_70.ptx:1443) add.s64 %rd101, %rd100, %rd97;
GPGPU-Sim PTX: 44 (potential) branch divergence @  PC=0x2528 (cutlass-test.1.sm_70.ptx:1435) bra.uni BB0_131;
GPGPU-Sim PTX:    immediate post dominator      @  PC=0x2530 (cutlass-test.1.sm_70.ptx:1438) shl.b64 %rd366, %rd100, 2;
GPGPU-Sim PTX: 45 (potential) branch divergence @  PC=0x2568 (cutlass-test.1.sm_70.ptx:1447) @!%p164 bra BB0_134;
GPGPU-Sim PTX:    immediate post dominator      @  PC=0x2590 (cutlass-test.1.sm_70.ptx:1456) add.s64 %rd102, %rd101, %rd97;
GPGPU-Sim PTX: 46 (potential) branch divergence @  PC=0x2570 (cutlass-test.1.sm_70.ptx:1448) bra.uni BB0_133;
GPGPU-Sim PTX:    immediate post dominator      @  PC=0x2578 (cutlass-test.1.sm_70.ptx:1451) shl.b64 %rd369, %rd101, 2;
GPGPU-Sim PTX: 47 (potential) branch divergence @  PC=0x25b0 (cutlass-test.1.sm_70.ptx:1460) @!%p167 bra BB0_136;
GPGPU-Sim PTX:    immediate post dominator      @  PC=0x25d8 (cutlass-test.1.sm_70.ptx:1469) add.s64 %rd103, %rd102, %rd97;
GPGPU-Sim PTX: 48 (potential) branch divergence @  PC=0x25b8 (cutlass-test.1.sm_70.ptx:1461) bra.uni BB0_135;
GPGPU-Sim PTX:    immediate post dominator      @  PC=0x25c0 (cutlass-test.1.sm_70.ptx:1464) shl.b64 %rd372, %rd102, 2;
GPGPU-Sim PTX: 49 (potential) branch divergence @  PC=0x25f8 (cutlass-test.1.sm_70.ptx:1473) @!%p170 bra BB0_138;
GPGPU-Sim PTX:    immediate post dominator      @  PC=0x2620 (cutlass-test.1.sm_70.ptx:1482) add.s64 %rd104, %rd103, %rd97;
GPGPU-Sim PTX: 50 (potential) branch divergence @  PC=0x2600 (cutlass-test.1.sm_70.ptx:1474) bra.uni BB0_137;
GPGPU-Sim PTX:    immediate post dominator      @  PC=0x2608 (cutlass-test.1.sm_70.ptx:1477) shl.b64 %rd375, %rd103, 2;
GPGPU-Sim PTX: 51 (potential) branch divergence @  PC=0x2640 (cutlass-test.1.sm_70.ptx:1486) @!%p173 bra BB0_140;
GPGPU-Sim PTX:    immediate post dominator      @  PC=0x2668 (cutlass-test.1.sm_70.ptx:1495) cvt.s64.s32%rd380, %r1260;
GPGPU-Sim PTX: 52 (potential) branch divergence @  PC=0x2648 (cutlass-test.1.sm_70.ptx:1487) bra.uni BB0_139;
GPGPU-Sim PTX:    immediate post dominator      @  PC=0x2650 (cutlass-test.1.sm_70.ptx:1490) shl.b64 %rd378, %rd104, 2;
GPGPU-Sim PTX: 53 (potential) branch divergence @  PC=0x2800 (cutlass-test.1.sm_70.ptx:1546) @%p176 bra BB0_142;
GPGPU-Sim PTX:    immediate post dominator      @  PC=0x2850 (cutlass-test.1.sm_70.ptx:1559) ld.param.f32 %f1233, [_ZN7cutlass4gemm11gemm_kernelINS0_4GemmINS0_14WmmaGemmTraitsILNS_12MatrixLayout4KindE0ELS5_1ENS_5ShapeILi64ELi128ELi128ELi1EEEfNS0_13LinearScalingIfNS0_19FragmentMultiplyAddIfEEEEfNS6_ILi64ELi32ELi64ELi1EEENS6_ILi16ELi16ELi16ELi1EEELi8ELi8EiNS0_20WmmaGemmTraitsHelperILS5_0ELS5_1ES7_ffSB_SC_SD_Li8ELi8EiEEEEEEEEvNT_6ParamsE_param_0+424];
GPGPU-Sim PTX: 54 (potential) branch divergence @  PC=0x2a38 (cutlass-test.1.sm_70.ptx:1620) @!%p179 bra BB0_144;
GPGPU-Sim PTX:    immediate post dominator      @  PC=0x2a60 (cutlass-test.1.sm_70.ptx:1629) add.s64 %rd107, %rd106, %rd97;
GPGPU-Sim PTX: 55 (potential) branch divergence @  PC=0x2a40 (cutlass-test.1.sm_70.ptx:1621) bra.uni BB0_143;
GPGPU-Sim PTX:    immediate post dominator      @  PC=0x2a48 (cutlass-test.1.sm_70.ptx:1624) shl.b64 %rd387, %rd106, 2;
GPGPU-Sim PTX: 56 (potential) branch divergence @  PC=0x2a80 (cutlass-test.1.sm_70.ptx:1633) @!%p182 bra BB0_146;
GPGPU-Sim PTX:    immediate post dominator      @  PC=0x2aa8 (cutlass-test.1.sm_70.ptx:1642) add.s64 %rd108, %rd107, %rd97;
GPGPU-Sim PTX: 57 (potential) branch divergence @  PC=0x2a88 (cutlass-test.1.sm_70.ptx:1634) bra.uni BB0_145;
GPGPU-Sim PTX:    immediate post dominator      @  PC=0x2a90 (cutlass-test.1.sm_70.ptx:1637) shl.b64 %rd390, %rd107, 2;
GPGPU-Sim PTX: 58 (potential) branch divergence @  PC=0x2ac8 (cutlass-test.1.sm_70.ptx:1646) @!%p185 bra BB0_148;
GPGPU-Sim PTX:    immediate post dominator      @  PC=0x2af0 (cutlass-test.1.sm_70.ptx:1655) add.s64 %rd109, %rd108, %rd97;
GPGPU-Sim PTX: 59 (potential) branch divergence @  PC=0x2ad0 (cutlass-test.1.sm_70.ptx:1647) bra.uni BB0_147;
GPGPU-Sim PTX:    immediate post dominator      @  PC=0x2ad8 (cutlass-test.1.sm_70.ptx:1650) shl.b64 %rd393, %rd108, 2;
GPGPU-Sim PTX: 60 (potential) branch divergence @  PC=0x2b10 (cutlass-test.1.sm_70.ptx:1659) @!%p188 bra BB0_150;
GPGPU-Sim PTX:    immediate post dominator      @  PC=0x2b38 (cutlass-test.1.sm_70.ptx:1668) add.s64 %rd110, %rd109, %rd97;
GPGPU-Sim PTX: 61 (potential) branch divergence @  PC=0x2b18 (cutlass-test.1.sm_70.ptx:1660) bra.uni BB0_149;
GPGPU-Sim PTX:    immediate post dominator      @  PC=0x2b20 (cutlass-test.1.sm_70.ptx:1663) shl.b64 %rd396, %rd109, 2;
GPGPU-Sim PTX: 62 (potential) branch divergence @  PC=0x2b58 (cutlass-test.1.sm_70.ptx:1672) @!%p191 bra BB0_152;
GPGPU-Sim PTX:    immediate post dominator      @  PC=0x2b80 (cutlass-test.1.sm_70.ptx:1681) add.s64 %rd111, %rd110, %rd97;
GPGPU-Sim PTX: 63 (potential) branch divergence @  PC=0x2b60 (cutlass-test.1.sm_70.ptx:1673) bra.uni BB0_151;
GPGPU-Sim PTX:    immediate post dominator      @  PC=0x2b68 (cutlass-test.1.sm_70.ptx:1676) shl.b64 %rd399, %rd110, 2;
GPGPU-Sim PTX: 64 (potential) branch divergence @  PC=0x2ba0 (cutlass-test.1.sm_70.ptx:1685) @!%p194 bra BB0_154;
GPGPU-Sim PTX:    immediate post dominator      @  PC=0x2bc8 (cutlass-test.1.sm_70.ptx:1694) add.s64 %rd405, %rd111, %rd97;
GPGPU-Sim PTX: 65 (potential) branch divergence @  PC=0x2ba8 (cutlass-test.1.sm_70.ptx:1686) bra.uni BB0_153;
GPGPU-Sim PTX:    immediate post dominator      @  PC=0x2bb0 (cutlass-test.1.sm_70.ptx:1689) shl.b64 %rd402, %rd111, 2;
GPGPU-Sim PTX: 66 (potential) branch divergence @  PC=0x2bf8 (cutlass-test.1.sm_70.ptx:1700) @!%p197 bra BB0_156;
GPGPU-Sim PTX:    immediate post dominator      @  PC=0x3f98 (cutlass-test.1.sm_70.ptx:2504) ret;
GPGPU-Sim PTX: 67 (potential) branch divergence @  PC=0x2c00 (cutlass-test.1.sm_70.ptx:1701) bra.uni BB0_155;
GPGPU-Sim PTX:    immediate post dominator      @  PC=0x2c08 (cutlass-test.1.sm_70.ptx:1704) st.global.v4.f32 [%rd112], {%f226, %f225, %f224, %f223};
GPGPU-Sim PTX: 68 (potential) branch divergence @  PC=0x2c10 (cutlass-test.1.sm_70.ptx:1705) bra.uni BB0_156;
GPGPU-Sim PTX:    immediate post dominator      @  PC=0x3f98 (cutlass-test.1.sm_70.ptx:2504) ret;
GPGPU-Sim PTX: 69 (potential) branch divergence @  PC=0x2c58 (cutlass-test.1.sm_70.ptx:1716) @%p50 bra BB0_54;
GPGPU-Sim PTX:    immediate post dominator      @  PC=0x2cd0 (cutlass-test.1.sm_70.ptx:1754) shl.b32 %r1788, %r19, 2;
GPGPU-Sim PTX: 70 (potential) branch divergence @  PC=0x2cf0 (cutlass-test.1.sm_70.ptx:1758) @%p51 bra BB0_56;
GPGPU-Sim PTX:    immediate post dominator      @  PC=0x2d68 (cutlass-test.1.sm_70.ptx:1796) setp.lt.s32%p52, %r1016, %r1266;
GPGPU-Sim PTX: 71 (potential) branch divergence @  PC=0x2d80 (cutlass-test.1.sm_70.ptx:1799) @!%p54 bra BB0_58;
GPGPU-Sim PTX:    immediate post dominator      @  PC=0x2d98 (cutlass-test.1.sm_70.ptx:1806) cvt.s64.s32%rd47, %r1253;
GPGPU-Sim PTX: 72 (potential) branch divergence @  PC=0x2d88 (cutlass-test.1.sm_70.ptx:1800) bra.uni BB0_57;
GPGPU-Sim PTX:    immediate post dominator      @  PC=0x2d90 (cutlass-test.1.sm_70.ptx:1803) ld.global.v4.u32 {%r2524, %r2525, %r2526, %r2527}, [%rd46];
GPGPU-Sim PTX: 73 (potential) branch divergence @  PC=0x2dd0 (cutlass-test.1.sm_70.ptx:1813) @!%p57 bra BB0_60;
GPGPU-Sim PTX:    immediate post dominator      @  PC=0x2de8 (cutlass-test.1.sm_70.ptx:1820) add.s64 %rd50, %rd48, %rd47;
GPGPU-Sim PTX: 74 (potential) branch divergence @  PC=0x2dd8 (cutlass-test.1.sm_70.ptx:1814) bra.uni BB0_59;
GPGPU-Sim PTX:    immediate post dominator      @  PC=0x2de0 (cutlass-test.1.sm_70.ptx:1817) ld.global.v4.u32 {%r2528, %r2529, %r2530, %r2531}, [%rd49];
GPGPU-Sim PTX: 75 (potential) branch divergence @  PC=0x2e18 (cutlass-test.1.sm_70.ptx:1826) @!%p60 bra BB0_62;
GPGPU-Sim PTX:    immediate post dominator      @  PC=0x2e30 (cutlass-test.1.sm_70.ptx:1833) add.s64 %rd52, %rd50, %rd47;
GPGPU-Sim PTX: 76 (potential) branch divergence @  PC=0x2e20 (cutlass-test.1.sm_70.ptx:1827) bra.uni BB0_61;
GPGPU-Sim PTX:    immediate post dominator      @  PC=0x2e28 (cutlass-test.1.sm_70.ptx:1830) ld.global.v4.u32 {%r2532, %r2533, %r2534, %r2535}, [%rd51];
GPGPU-Sim PTX: 77 (potential) branch divergence @  PC=0x2e60 (cutlass-test.1.sm_70.ptx:1839) @!%p63 bra BB0_64;
GPGPU-Sim PTX:    immediate post dominator      @  PC=0x2e78 (cutlass-test.1.sm_70.ptx:1846) add.s64 %rd54, %rd52, %rd47;
GPGPU-Sim PTX: 78 (potential) branch divergence @  PC=0x2e68 (cutlass-test.1.sm_70.ptx:1840) bra.uni BB0_63;
GPGPU-Sim PTX:    immediate post dominator      @  PC=0x2e70 (cutlass-test.1.sm_70.ptx:1843) ld.global.v4.u32 {%r2536, %r2537, %r2538, %r2539}, [%rd53];
GPGPU-Sim PTX: 79 (potential) branch divergence @  PC=0x2ea8 (cutlass-test.1.sm_70.ptx:1852) @!%p66 bra BB0_66;
GPGPU-Sim PTX:    immediate post dominator      @  PC=0x2ec0 (cutlass-test.1.sm_70.ptx:1859) add.s64 %rd56, %rd54, %rd47;
GPGPU-Sim PTX: 80 (potential) branch divergence @  PC=0x2eb0 (cutlass-test.1.sm_70.ptx:1853) bra.uni BB0_65;
GPGPU-Sim PTX:    immediate post dominator      @  PC=0x2eb8 (cutlass-test.1.sm_70.ptx:1856) ld.global.v4.u32 {%r2540, %r2541, %r2542, %r2543}, [%rd55];
GPGPU-Sim PTX: 81 (potential) branch divergence @  PC=0x2ef0 (cutlass-test.1.sm_70.ptx:1865) @!%p69 bra BB0_68;
GPGPU-Sim PTX:    immediate post dominator      @  PC=0x2f08 (cutlass-test.1.sm_70.ptx:1872) add.s64 %rd58, %rd56, %rd47;
GPGPU-Sim PTX: 82 (potential) branch divergence @  PC=0x2ef8 (cutlass-test.1.sm_70.ptx:1866) bra.uni BB0_67;
GPGPU-Sim PTX:    immediate post dominator      @  PC=0x2f00 (cutlass-test.1.sm_70.ptx:1869) ld.global.v4.u32 {%r2544, %r2545, %r2546, %r2547}, [%rd57];
GPGPU-Sim PTX: 83 (potential) branch divergence @  PC=0x2f38 (cutlass-test.1.sm_70.ptx:1878) @!%p72 bra BB0_70;
GPGPU-Sim PTX:    immediate post dominator      @  PC=0x2f50 (cutlass-test.1.sm_70.ptx:1885) add.s64 %rd60, %rd58, %rd47;
GPGPU-Sim PTX: 84 (potential) branch divergence @  PC=0x2f40 (cutlass-test.1.sm_70.ptx:1879) bra.uni BB0_69;
GPGPU-Sim PTX:    immediate post dominator      @  PC=0x2f48 (cutlass-test.1.sm_70.ptx:1882) ld.global.v4.u32 {%r2548, %r2549, %r2550, %r2551}, [%rd59];
GPGPU-Sim PTX: 85 (potential) branch divergence @  PC=0x2f80 (cutlass-test.1.sm_70.ptx:1891) @!%p75 bra BB0_72;
GPGPU-Sim PTX:    immediate post dominator      @  PC=0x2f98 (cutlass-test.1.sm_70.ptx:1898) mul.wide.s32 %rd267, %r1018, 4;
GPGPU-Sim PTX: 86 (potential) branch divergence @  PC=0x2f88 (cutlass-test.1.sm_70.ptx:1892) bra.uni BB0_71;
GPGPU-Sim PTX:    immediate post dominator      @  PC=0x2f90 (cutlass-test.1.sm_70.ptx:1895) ld.global.v4.u32 {%r2552, %r2553, %r2554, %r2555}, [%rd61];
GPGPU-Sim PTX: 87 (potential) branch divergence @  PC=0x34a8 (cutlass-test.1.sm_70.ptx:2060) @%p78 bra BB0_74;
GPGPU-Sim PTX:    immediate post dominator      @  PC=0x34b8 (cutlass-test.1.sm_70.ptx:2065) cvt.s64.s32%rd66, %r1259;
GPGPU-Sim PTX: 88 (potential) branch divergence @  PC=0x34e0 (cutlass-test.1.sm_70.ptx:2070) @!%p81 bra BB0_76;
GPGPU-Sim PTX:    immediate post dominator      @  PC=0x3508 (cutlass-test.1.sm_70.ptx:2079) add.s64 %rd68, %rd67, %rd66;
GPGPU-Sim PTX: 89 (potential) branch divergence @  PC=0x34e8 (cutlass-test.1.sm_70.ptx:2071) bra.uni BB0_75;
GPGPU-Sim PTX:    immediate post dominator      @  PC=0x34f0 (cutlass-test.1.sm_70.ptx:2074) shl.b64 %rd277, %rd67, 2;
GPGPU-Sim PTX: 90 (potential) branch divergence @  PC=0x3528 (cutlass-test.1.sm_70.ptx:2083) @!%p84 bra BB0_78;
GPGPU-Sim PTX:    immediate post dominator      @  PC=0x3550 (cutlass-test.1.sm_70.ptx:2092) add.s64 %rd69, %rd68, %rd66;
GPGPU-Sim PTX: 91 (potential) branch divergence @  PC=0x3530 (cutlass-test.1.sm_70.ptx:2084) bra.uni BB0_77;
GPGPU-Sim PTX:    immediate post dominator      @  PC=0x3538 (cutlass-test.1.sm_70.ptx:2087) shl.b64 %rd280, %rd68, 2;
GPGPU-Sim PTX: 92 (potential) branch divergence @  PC=0x3570 (cutlass-test.1.sm_70.ptx:2096) @!%p87 bra BB0_80;
GPGPU-Sim PTX:    immediate post dominator      @  PC=0x3598 (cutlass-test.1.sm_70.ptx:2105) add.s64 %rd70, %rd69, %rd66;
GPGPU-Sim PTX: 93 (potential) branch divergence @  PC=0x3578 (cutlass-test.1.sm_70.ptx:2097) bra.uni BB0_79;
GPGPU-Sim PTX:    immediate post dominator      @  PC=0x3580 (cutlass-test.1.sm_70.ptx:2100) shl.b64 %rd283, %rd69, 2;
GPGPU-Sim PTX: 94 (potential) branch divergence @  PC=0x35b8 (cutlass-test.1.sm_70.ptx:2109) @!%p90 bra BB0_82;
GPGPU-Sim PTX:    immediate post dominator      @  PC=0x35e0 (cutlass-test.1.sm_70.ptx:2118) add.s64 %rd71, %rd70, %rd66;
GPGPU-Sim PTX: 95 (potential) branch divergence @  PC=0x35c0 (cutlass-test.1.sm_70.ptx:2110) bra.uni BB0_81;
GPGPU-Sim PTX:    immediate post dominator      @  PC=0x35c8 (cutlass-test.1.sm_70.ptx:2113) shl.b64 %rd286, %rd70, 2;
GPGPU-Sim PTX: 96 (potential) branch divergence @  PC=0x3600 (cutlass-test.1.sm_70.ptx:2122) @!%p93 bra BB0_84;
GPGPU-Sim PTX:    immediate post dominator      @  PC=0x3628 (cutlass-test.1.sm_70.ptx:2131) add.s64 %rd72, %rd71, %rd66;
GPGPU-Sim PTX: 97 (potential) branch divergence @  PC=0x3608 (cutlass-test.1.sm_70.ptx:2123) bra.uni BB0_83;
GPGPU-Sim PTX:    immediate post dominator      @  PC=0x3610 (cutlass-test.1.sm_70.ptx:2126) shl.b64 %rd289, %rd71, 2;
GPGPU-Sim PTX: 98 (potential) branch divergence @  PC=0x3648 (cutlass-test.1.sm_70.ptx:2135) @!%p96 bra BB0_86;
GPGPU-Sim PTX:    immediate post dominator      @  PC=0x3670 (cutlass-test.1.sm_70.ptx:2144) add.s64 %rd73, %rd72, %rd66;
GPGPU-Sim PTX: 99 (potential) branch divergence @  PC=0x3650 (cutlass-test.1.sm_70.ptx:2136) bra.uni BB0_85;
GPGPU-Sim PTX:    immediate post dominator      @  PC=0x3658 (cutlass-test.1.sm_70.ptx:2139) shl.b64 %rd292, %rd72, 2;
GPGPU-Sim PTX: 100 (potential) branch divergence @  PC=0x3690 (cutlass-test.1.sm_70.ptx:2148) @!%p99 bra BB0_88;
GPGPU-Sim PTX:    immediate post dominator      @  PC=0x36b8 (cutlass-test.1.sm_70.ptx:2157) cvt.s64.s32%rd297, %r1260;
GPGPU-Sim PTX: 101 (potential) branch divergence @  PC=0x3698 (cutlass-test.1.sm_70.ptx:2149) bra.uni BB0_87;
GPGPU-Sim PTX:    immediate post dominator      @  PC=0x36a0 (cutlass-test.1.sm_70.ptx:2152) shl.b64 %rd295, %rd73, 2;
GPGPU-Sim PTX: 102 (potential) branch divergence @  PC=0x36e0 (cutlass-test.1.sm_70.ptx:2162) @!%p102 bra BB0_90;
GPGPU-Sim PTX:    immediate post dominator      @  PC=0x36f8 (cutlass-test.1.sm_70.ptx:2169) add.s64 %rd75, %rd63, %rd47;
GPGPU-Sim PTX: 103 (potential) branch divergence @  PC=0x36e8 (cutlass-test.1.sm_70.ptx:2163) bra.uni BB0_89;
GPGPU-Sim PTX:    immediate post dominator      @  PC=0x36f0 (cutlass-test.1.sm_70.ptx:2166) ld.global.v4.u32 {%r2524, %r2525, %r2526, %r2527}, [%rd64];
GPGPU-Sim PTX: 104 (potential) branch divergence @  PC=0x3728 (cutlass-test.1.sm_70.ptx:2175) @!%p105 bra BB0_92;
GPGPU-Sim PTX:    immediate post dominator      @  PC=0x3740 (cutlass-test.1.sm_70.ptx:2182) add.s64 %rd77, %rd75, %rd47;
GPGPU-Sim PTX: 105 (potential) branch divergence @  PC=0x3730 (cutlass-test.1.sm_70.ptx:2176) bra.uni BB0_91;
GPGPU-Sim PTX:    immediate post dominator      @  PC=0x3738 (cutlass-test.1.sm_70.ptx:2179) ld.global.v4.u32 {%r2528, %r2529, %r2530, %r2531}, [%rd76];
GPGPU-Sim PTX: 106 (potential) branch divergence @  PC=0x3770 (cutlass-test.1.sm_70.ptx:2188) @!%p108 bra BB0_94;
GPGPU-Sim PTX:    immediate post dominator      @  PC=0x3788 (cutlass-test.1.sm_70.ptx:2195) add.s64 %rd79, %rd77, %rd47;
GPGPU-Sim PTX: 107 (potential) branch divergence @  PC=0x3778 (cutlass-test.1.sm_70.ptx:2189) bra.uni BB0_93;
GPGPU-Sim PTX:    immediate post dominator      @  PC=0x3780 (cutlass-test.1.sm_70.ptx:2192) ld.global.v4.u32 {%r2532, %r2533, %r2534, %r2535}, [%rd78];
GPGPU-Sim PTX: 108 (potential) branch divergence @  PC=0x37b8 (cutlass-test.1.sm_70.ptx:2201) @!%p111 bra BB0_96;
GPGPU-Sim PTX:    immediate post dominator      @  PC=0x37d0 (cutlass-test.1.sm_70.ptx:2208) add.s64 %rd81, %rd79, %rd47;
GPGPU-Sim PTX: 109 (potential) branch divergence @  PC=0x37c0 (cutlass-test.1.sm_70.ptx:2202) bra.uni BB0_95;
GPGPU-Sim PTX:    immediate post dominator      @  PC=0x37c8 (cutlass-test.1.sm_70.ptx:2205) ld.global.v4.u32 {%r2536, %r2537, %r2538, %r2539}, [%rd80];
GPGPU-Sim PTX: 110 (potential) branch divergence @  PC=0x3800 (cutlass-test.1.sm_70.ptx:2214) @!%p114 bra BB0_98;
GPGPU-Sim PTX:    immediate post dominator      @  PC=0x3818 (cutlass-test.1.sm_70.ptx:2221) add.s64 %rd83, %rd81, %rd47;
GPGPU-Sim PTX: 111 (potential) branch divergence @  PC=0x3808 (cutlass-test.1.sm_70.ptx:2215) bra.uni BB0_97;
GPGPU-Sim PTX:    immediate post dominator      @  PC=0x3810 (cutlass-test.1.sm_70.ptx:2218) ld.global.v4.u32 {%r2540, %r2541, %r2542, %r2543}, [%rd82];
GPGPU-Sim PTX: 112 (potential) branch divergence @  PC=0x3848 (cutlass-test.1.sm_70.ptx:2227) @!%p117 bra BB0_100;
GPGPU-Sim PTX:    immediate post dominator      @  PC=0x3860 (cutlass-test.1.sm_70.ptx:2234) add.s64 %rd85, %rd83, %rd47;
GPGPU-Sim PTX: 113 (potential) branch divergence @  PC=0x3850 (cutlass-test.1.sm_70.ptx:2228) bra.uni BB0_99;
GPGPU-Sim PTX:    immediate post dominator      @  PC=0x3858 (cutlass-test.1.sm_70.ptx:2231) ld.global.v4.u32 {%r2544, %r2545, %r2546, %r2547}, [%rd84];
GPGPU-Sim PTX: 114 (potential) branch divergence @  PC=0x3890 (cutlass-test.1.sm_70.ptx:2240) @!%p120 bra BB0_102;
GPGPU-Sim PTX:    immediate post dominator      @  PC=0x38a8 (cutlass-test.1.sm_70.ptx:2247) add.s64 %rd311, %rd85, %rd47;
GPGPU-Sim PTX: 115 (potential) branch divergence @  PC=0x3898 (cutlass-test.1.sm_70.ptx:2241) bra.uni BB0_101;
GPGPU-Sim PTX:    immediate post dominator      @  PC=0x38a0 (cutlass-test.1.sm_70.ptx:2244) ld.global.v4.u32 {%r2548, %r2549, %r2550, %r2551}, [%rd86];
GPGPU-Sim PTX: 116 (potential) branch divergence @  PC=0x38d8 (cutlass-test.1.sm_70.ptx:2253) @!%p123 bra BB0_104;
GPGPU-Sim PTX:    immediate post dominator      @  PC=0x38f0 (cutlass-test.1.sm_70.ptx:2260) bar.sync 0;
GPGPU-Sim PTX: 117 (potential) branch divergence @  PC=0x38e0 (cutlass-test.1.sm_70.ptx:2254) bra.uni BB0_103;
GPGPU-Sim PTX:    immediate post dominator      @  PC=0x38e8 (cutlass-test.1.sm_70.ptx:2257) ld.global.v4.u32 {%r2552, %r2553, %r2554, %r2555}, [%rd87];
[...]
	Total IMUL24 Acesses=0
	Total IMUL32 Acesses=131072
	Total IDIV Acesses=0
	Total FPMUL Acesses=113088
	Total SFU Acesses=0
	Total FPDIV Acesses=0
	Total SFU Acesses=6291456
	Total SP Acesses=2225664
	Total MEM Acesses=178176
	Total SFU Commissions=0
	Total SP Commissions=1984
	Total MEM Commissions=5625
	Total REG Reads=4248576
	Total REG Writes=2820256
	Total NON REG=471552
core 61:
	pipeline duty cycle =0.000000
	Total Deocded Instructions=37752
	Total FP Deocded Instructions=6240
	Total INT Deocded Instructions=29312
	Total LOAD Queued Instructions=0
	Total STORE Queued Instructions=0
	Total IALU Acesses=21790720
	Total FP Acesses=74496
	Total IMUL Acesses=22080
	Total IMUL24 Acesses=0
	Total IMUL32 Acesses=98304
	Total IDIV Acesses=0
	Total FPMUL Acesses=85728
	Total SFU Acesses=0
	Total FPDIV Acesses=0
	Total SFU Acesses=4718592
	Total SP Acesses=1676800
	Total MEM Acesses=135680
	Total SFU Commissions=0
	Total SP Commissions=1504
	Total MEM Commissions=4240
	Total REG Reads=3196160
	Total REG Writes=2214688
	Total NON REG=355584
core 62:
	pipeline duty cycle =0.000000
	Total Deocded Instructions=37752
	Total FP Deocded Instructions=6240
	Total INT Deocded Instructions=29312
	Total LOAD Queued Instructions=0
	Total STORE Queued Instructions=0
	Total IALU Acesses=21790720
	Total FP Acesses=74496
	Total IMUL Acesses=22080
	Total IMUL24 Acesses=0
	Total IMUL32 Acesses=98304
	Total IDIV Acesses=0
	Total FPMUL Acesses=85728
	Total SFU Acesses=0
	Total FPDIV Acesses=0
	Total SFU Acesses=4718592
	Total SP Acesses=1676800
	Total MEM Acesses=135680
	Total SFU Commissions=0
	Total SP Commissions=1504
	Total MEM Commissions=4240
	Total REG Reads=3196160
	Total REG Writes=2218048
	Total NON REG=355584
core 63:
	pipeline duty cycle =0.000000
	Total Deocded Instructions=50256
	Total FP Deocded Instructions=8256
	Total INT Deocded Instructions=39072
	Total LOAD Queued Instructions=0
	Total STORE Queued Instructions=0
	Total IALU Acesses=28987392
	Total FP Acesses=99328
	Total IMUL Acesses=29440
	Total IMUL24 Acesses=0
	Total IMUL32 Acesses=131072
	Total IDIV Acesses=0
	Total FPMUL Acesses=112128
	Total SFU Acesses=0
	Total FPDIV Acesses=0
	Total SFU Acesses=6291456
	Total SP Acesses=2225664
	Total MEM Acesses=176640
	Total SFU Commissions=0
	Total SP Commissions=1984
	Total MEM Commissions=5691
	Total REG Reads=4247040
	Total REG Writes=2642368
	Total NON REG=470016
core 64:
	pipeline duty cycle =0.125000
	Total Deocded Instructions=50208
	Total FP Deocded Instructions=8256
	Total INT Deocded Instructions=39024
	Total LOAD Queued Instructions=0
	Total STORE Queued Instructions=0
	Total IALU Acesses=29016064
	Total FP Acesses=99328
	Total IMUL Acesses=29440
	Total IMUL24 Acesses=0
	Total IMUL32 Acesses=131072
	Total IDIV Acesses=0
	Total FPMUL Acesses=113088
	Total SFU Acesses=0
	Total FPDIV Acesses=0
	Total SFU Acesses=6291456
	Total SP Acesses=2225664
	Total MEM Acesses=178176
	Total SFU Commissions=0
	Total SP Commissions=1984
	Total MEM Commissions=5595
	Total REG Reads=4248576
	Total REG Writes=2820160
	Total NON REG=471552
core 65:
	pipeline duty cycle =0.000000
	Total Deocded Instructions=37752
	Total FP Deocded Instructions=6240
	Total INT Deocded Instructions=29312
	Total LOAD Queued Instructions=0
	Total STORE Queued Instructions=0
	Total IALU Acesses=21790720
	Total FP Acesses=74496
	Total IMUL Acesses=22080
	Total IMUL24 Acesses=0
	Total IMUL32 Acesses=98304
	Total IDIV Acesses=0
	Total FPMUL Acesses=85728
	Total SFU Acesses=0
	Total FPDIV Acesses=0
	Total SFU Acesses=4718592
	Total SP Acesses=1676800
	Total MEM Acesses=135680
	Total SFU Commissions=0
	Total SP Commissions=1504
	Total MEM Commissions=4240
	Total REG Reads=3196160
	Total REG Writes=2219680
	Total NON REG=355584
core 66:
	pipeline duty cycle =0.000000
	Total Deocded Instructions=37752
	Total FP Deocded Instructions=6240
	Total INT Deocded Instructions=29312
	Total LOAD Queued Instructions=0
	Total STORE Queued Instructions=0
	Total IALU Acesses=21790720
	Total FP Acesses=74496
	Total IMUL Acesses=22080
	Total IMUL24 Acesses=0
	Total IMUL32 Acesses=98304
	Total IDIV Acesses=0
	Total FPMUL Acesses=85728
	Total SFU Acesses=0
	Total FPDIV Acesses=0
	Total SFU Acesses=4718592
	Total SP Acesses=1676800
	Total MEM Acesses=135680
	Total SFU Commissions=0
	Total SP Commissions=1504
	Total MEM Commissions=4240
	Total REG Reads=3196160
	Total REG Writes=2216576
	Total NON REG=355584
core 67:
	pipeline duty cycle =0.125000
	Total Deocded Instructions=50016
	Total FP Deocded Instructions=8160
	Total INT Deocded Instructions=38936
	Total LOAD Queued Instructions=0
	Total STORE Queued Instructions=0
	Total IALU Acesses=28958720
	Total FP Acesses=99328
	Total IMUL Acesses=29440
	Total IMUL24 Acesses=0
	Total IMUL32 Acesses=131072
	Total IDIV Acesses=0
	Total FPMUL Acesses=111264
	Total SFU Acesses=0
	Total FPDIV Acesses=0
	Total SFU Acesses=6291456
	Total SP Acesses=2210560
	Total MEM Acesses=174080
	Total SFU Commissions=0
	Total SP Commissions=1952
	Total MEM Commissions=5563
	Total REG Reads=4229120
	Total REG Writes=2675776
	Total NON REG=467712
core 68:
	pipeline duty cycle =0.000000
	Total Deocded Instructions=50256
	Total FP Deocded Instructions=8256
	Total INT Deocded Instructions=39072
	Total LOAD Queued Instructions=0
	Total STORE Queued Instructions=0
	Total IALU Acesses=29001728
	Total FP Acesses=99328
	Total IMUL Acesses=29440
	Total IMUL24 Acesses=0
	Total IMUL32 Acesses=131072
	Total IDIV Acesses=0
	Total FPMUL Acesses=112608
	Total SFU Acesses=0
	Total FPDIV Acesses=0
	Total SFU Acesses=6291456
	Total SP Acesses=2225664
	Total MEM Acesses=176640
	Total SFU Commissions=0
	Total SP Commissions=1984
	Total MEM Commissions=5643
	Total REG Reads=4247040
	Total REG Writes=2695968
	Total NON REG=470016
core 69:
	pipeline duty cycle =0.000000
	Total Deocded Instructions=37752
	Total FP Deocded Instructions=6240
	Total INT Deocded Instructions=29312
	Total LOAD Queued Instructions=0
	Total STORE Queued Instructions=0
	Total IALU Acesses=21790720
	Total FP Acesses=74496
	Total IMUL Acesses=22080
	Total IMUL24 Acesses=0
	Total IMUL32 Acesses=98304
	Total IDIV Acesses=0
	Total FPMUL Acesses=85728
	Total SFU Acesses=0
	Total FPDIV Acesses=0
	Total SFU Acesses=4718592
	Total SP Acesses=1676800
	Total MEM Acesses=135680
	Total SFU Commissions=0
	Total SP Commissions=1504
	Total MEM Commissions=4240
	Total REG Reads=3196160
	Total REG Writes=2222592
	Total NON REG=355584
core 70:
	pipeline duty cycle =0.000000
	Total Deocded Instructions=50016
	Total FP Deocded Instructions=8160
	Total INT Deocded Instructions=38936
	Total LOAD Queued Instructions=0
	Total STORE Queued Instructions=0
	Total IALU Acesses=28958720
	Total FP Acesses=99328
	Total IMUL Acesses=29440
	Total IMUL24 Acesses=0
	Total IMUL32 Acesses=131072
	Total IDIV Acesses=0
	Total FPMUL Acesses=111264
	Total SFU Acesses=0
	Total FPDIV Acesses=0
	Total SFU Acesses=6291456
	Total SP Acesses=2210560
	Total MEM Acesses=174080
	Total SFU Commissions=0
	Total SP Commissions=1952
	Total MEM Commissions=5578
	Total REG Reads=4229120
	Total REG Writes=2670304
	Total NON REG=467712
core 71:
	pipeline duty cycle =0.125000
	Total Deocded Instructions=50016
	Total FP Deocded Instructions=8160
	Total INT Deocded Instructions=38936
	Total LOAD Queued Instructions=0
	Total STORE Queued Instructions=0
	Total IALU Acesses=28958720
	Total FP Acesses=99328
	Total IMUL Acesses=29440
	Total IMUL24 Acesses=0
	Total IMUL32 Acesses=131072
	Total IDIV Acesses=0
	Total FPMUL Acesses=111264
	Total SFU Acesses=0
	Total FPDIV Acesses=0
	Total SFU Acesses=6291456
	Total SP Acesses=2210560
	Total MEM Acesses=174080
	Total SFU Commissions=0
	Total SP Commissions=1952
	Total MEM Commissions=5548
	Total REG Reads=4229120
	Total REG Writes=2673664
	Total NON REG=467712
core 72:
	pipeline duty cycle =0.000000
	Total Deocded Instructions=50016
	Total FP Deocded Instructions=8160
	Total INT Deocded Instructions=38936
	Total LOAD Queued Instructions=0
	Total STORE Queued Instructions=0
	Total IALU Acesses=28958720
	Total FP Acesses=99328
	Total IMUL Acesses=29440
	Total IMUL24 Acesses=0
	Total IMUL32 Acesses=131072
	Total IDIV Acesses=0
	Total FPMUL Acesses=111264
	Total SFU Acesses=0
	Total FPDIV Acesses=0
	Total SFU Acesses=6291456
	Total SP Acesses=2210560
	Total MEM Acesses=174080
	Total SFU Commissions=0
	Total SP Commissions=1952
	Total MEM Commissions=5560
	Total REG Reads=4229120
	Total REG Writes=2676800
	Total NON REG=467712
core 73:
	pipeline duty cycle =0.000000
	Total Deocded Instructions=37752
	Total FP Deocded Instructions=6240
	Total INT Deocded Instructions=29312
	Total LOAD Queued Instructions=0
	Total STORE Queued Instructions=0
	Total IALU Acesses=21790720
	Total FP Acesses=74496
	Total IMUL Acesses=22080
	Total IMUL24 Acesses=0
	Total IMUL32 Acesses=98304
	Total IDIV Acesses=0
	Total FPMUL Acesses=85728
	Total SFU Acesses=0
	Total FPDIV Acesses=0
	Total SFU Acesses=4718592
	Total SP Acesses=1676800
	Total MEM Acesses=135680
	Total SFU Commissions=0
	Total SP Commissions=1504
	Total MEM Commissions=4240
	Total REG Reads=3196160
	Total REG Writes=2214112
	Total NON REG=355584
core 74:
	pipeline duty cycle =0.000000
	Total Deocded Instructions=37752
	Total FP Deocded Instructions=6240
	Total INT Deocded Instructions=29312
	Total LOAD Queued Instructions=0
	Total STORE Queued Instructions=0
	Total IALU Acesses=21790720
	Total FP Acesses=74496
	Total IMUL Acesses=22080
	Total IMUL24 Acesses=0
	Total IMUL32 Acesses=98304
	Total IDIV Acesses=0
	Total FPMUL Acesses=85728
	Total SFU Acesses=0
	Total FPDIV Acesses=0
	Total SFU Acesses=4718592
	Total SP Acesses=1676800
	Total MEM Acesses=135680
	Total SFU Commissions=0
	Total SP Commissions=1504
	Total MEM Commissions=4240
	Total REG Reads=3196160
	Total REG Writes=2215424
	Total NON REG=355584
core 75:
	pipeline duty cycle =0.000000
	Total Deocded Instructions=37752
	Total FP Deocded Instructions=6240
	Total INT Deocded Instructions=29312
	Total LOAD Queued Instructions=0
	Total STORE Queued Instructions=0
	Total IALU Acesses=21790720
	Total FP Acesses=74496
	Total IMUL Acesses=22080
	Total IMUL24 Acesses=0
	Total IMUL32 Acesses=98304
	Total IDIV Acesses=0
	Total FPMUL Acesses=85728
	Total SFU Acesses=0
	Total FPDIV Acesses=0
	Total SFU Acesses=4718592
	Total SP Acesses=1676800
	Total MEM Acesses=135680
	Total SFU Commissions=0
	Total SP Commissions=1504
	Total MEM Commissions=4240
	Total REG Reads=3196160
	Total REG Writes=2214720
	Total NON REG=355584
core 76:
	pipeline duty cycle =0.000000
	Total Deocded Instructions=50208
	Total FP Deocded Instructions=8256
	Total INT Deocded Instructions=39024
	Total LOAD Queued Instructions=0
	Total STORE Queued Instructions=0
	Total IALU Acesses=29016064
	Total FP Acesses=99328
	Total IMUL Acesses=29440
	Total IMUL24 Acesses=0
	Total IMUL32 Acesses=131072
	Total IDIV Acesses=0
	Total FPMUL Acesses=113088
	Total SFU Acesses=0
	Total FPDIV Acesses=0
	Total SFU Acesses=6291456
	Total SP Acesses=2225664
	Total MEM Acesses=178176
	Total SFU Commissions=0
	Total SP Commissions=1984
	Total MEM Commissions=5622
	Total REG Reads=4248576
	Total REG Writes=2828672
	Total NON REG=471552
core 77:
	pipeline duty cycle =0.000000
	Total Deocded Instructions=50208
	Total FP Deocded Instructions=8256
	Total INT Deocded Instructions=39024
	Total LOAD Queued Instructions=0
	Total STORE Queued Instructions=0
	Total IALU Acesses=29016064
	Total FP Acesses=99328
	Total IMUL Acesses=29440
	Total IMUL24 Acesses=0
	Total IMUL32 Acesses=131072
	Total IDIV Acesses=0
	Total FPMUL Acesses=113088
	Total SFU Acesses=0
	Total FPDIV Acesses=0
	Total SFU Acesses=6291456
	Total SP Acesses=2225664
	Total MEM Acesses=178176
	Total SFU Commissions=0
	Total SP Commissions=1984
	Total MEM Commissions=5673
	Total REG Reads=4248576
	Total REG Writes=2800896
	Total NON REG=471552
core 78:
	pipeline duty cycle =0.000000
	Total Deocded Instructions=50208
	Total FP Deocded Instructions=8256
	Total INT Deocded Instructions=39024
	Total LOAD Queued Instructions=0
	Total STORE Queued Instructions=0
	Total IALU Acesses=29016064
	Total FP Acesses=99328
	Total IMUL Acesses=29440
	Total IMUL24 Acesses=0
	Total IMUL32 Acesses=131072
	Total IDIV Acesses=0
	Total FPMUL Acesses=113088
	Total SFU Acesses=0
	Total FPDIV Acesses=0
	Total SFU Acesses=6291456
	Total SP Acesses=2225664
	Total MEM Acesses=178176
	Total SFU Commissions=0
	Total SP Commissions=1984
	Total MEM Commissions=5628
	Total REG Reads=4248576
	Total REG Writes=2816032
	Total NON REG=471552
core 79:
	pipeline duty cycle =0.125000
	Total Deocded Instructions=50016
	Total FP Deocded Instructions=8160
	Total INT Deocded Instructions=38936
	Total LOAD Queued Instructions=0
	Total STORE Queued Instructions=0
	Total IALU Acesses=28958720
	Total FP Acesses=99328
	Total IMUL Acesses=29440
	Total IMUL24 Acesses=0
	Total IMUL32 Acesses=131072
	Total IDIV Acesses=0
	Total FPMUL Acesses=111264
	Total SFU Acesses=0
	Total FPDIV Acesses=0
	Total SFU Acesses=6291456
	Total SP Acesses=2210560
	Total MEM Acesses=174080
	Total SFU Commissions=0
	Total SP Commissions=1952
	Total MEM Commissions=5578
	Total REG Reads=4229120
	Total REG Writes=2665600
	Total NON REG=467712


==========Power Metrics -- Memory==========
Total memory controller accesses: 448112
Total memory controller reads: 448112
Total memory controller writes: 0
!!!Total Shared memory access: 307328
Core cache stats:
	Cache_stats[GLOBAL_ACC_R][HIT] = 31464
	Cache_stats[GLOBAL_ACC_R][HIT_RESERVED] = 0
	Cache_stats[GLOBAL_ACC_R][MISS] = 746520
	Cache_stats[GLOBAL_ACC_R][RESERVATION_FAIL] = 11978
	Cache_stats[GLOBAL_ACC_R][SECTOR_MISS] = 0
	Cache_stats[LOCAL_ACC_R][HIT] = 0
	Cache_stats[LOCAL_ACC_R][HIT_RESERVED] = 0
	Cache_stats[LOCAL_ACC_R][MISS] = 0
	Cache_stats[LOCAL_ACC_R][RESERVATION_FAIL] = 0
	Cache_stats[LOCAL_ACC_R][SECTOR_MISS] = 0
	Cache_stats[CONST_ACC_R][HIT] = 0
	Cache_stats[CONST_ACC_R][HIT_RESERVED] = 0
	Cache_stats[CONST_ACC_R][MISS] = 0
	Cache_stats[CONST_ACC_R][RESERVATION_FAIL] = 0
	Cache_stats[CONST_ACC_R][SECTOR_MISS] = 0
	Cache_stats[TEXTURE_ACC_R][HIT] = 0
	Cache_stats[TEXTURE_ACC_R][HIT_RESERVED] = 0
	Cache_stats[TEXTURE_ACC_R][MISS] = 0
	Cache_stats[TEXTURE_ACC_R][RESERVATION_FAIL] = 0
	Cache_stats[TEXTURE_ACC_R][SECTOR_MISS] = 0
	Cache_stats[GLOBAL_ACC_W][HIT] = 0
	Cache_stats[GLOBAL_ACC_W][HIT_RESERVED] = 0
	Cache_stats[GLOBAL_ACC_W][MISS] = 443904
	Cache_stats[GLOBAL_ACC_W][RESERVATION_FAIL] = 65515
	Cache_stats[GLOBAL_ACC_W][SECTOR_MISS] = 0
	Cache_stats[LOCAL_ACC_W][HIT] = 0
	Cache_stats[LOCAL_ACC_W][HIT_RESERVED] = 0
	Cache_stats[LOCAL_ACC_W][MISS] = 0
	Cache_stats[LOCAL_ACC_W][RESERVATION_FAIL] = 0
	Cache_stats[LOCAL_ACC_W][SECTOR_MISS] = 0
	Cache_stats[L1_WRBK_ACC][HIT] = 0
	Cache_stats[L1_WRBK_ACC][HIT_RESERVED] = 0
	Cache_stats[L1_WRBK_ACC][MISS] = 0
	Cache_stats[L1_WRBK_ACC][RESERVATION_FAIL] = 0
	Cache_stats[L1_WRBK_ACC][SECTOR_MISS] = 0
	Cache_stats[L2_WRBK_ACC][HIT] = 0
	Cache_stats[L2_WRBK_ACC][HIT_RESERVED] = 0
	Cache_stats[L2_WRBK_ACC][MISS] = 0
	Cache_stats[L2_WRBK_ACC][RESERVATION_FAIL] = 0
	Cache_stats[L2_WRBK_ACC][SECTOR_MISS] = 0
	Cache_stats[INST_ACC_R][HIT] = 0
	Cache_stats[INST_ACC_R][HIT_RESERVED] = 0
	Cache_stats[INST_ACC_R][MISS] = 0
	Cache_stats[INST_ACC_R][RESERVATION_FAIL] = 0
	Cache_stats[INST_ACC_R][SECTOR_MISS] = 0
	Cache_stats[L1_WR_ALLOC_R][HIT] = 0
	Cache_stats[L1_WR_ALLOC_R][HIT_RESERVED] = 0
	Cache_stats[L1_WR_ALLOC_R][MISS] = 0
	Cache_stats[L1_WR_ALLOC_R][RESERVATION_FAIL] = 0
	Cache_stats[L1_WR_ALLOC_R][SECTOR_MISS] = 0
	Cache_stats[L2_WR_ALLOC_R][HIT] = 0
	Cache_stats[L2_WR_ALLOC_R][HIT_RESERVED] = 0
	Cache_stats[L2_WR_ALLOC_R][MISS] = 0
	Cache_stats[L2_WR_ALLOC_R][RESERVATION_FAIL] = 0
	Cache_stats[L2_WR_ALLOC_R][SECTOR_MISS] = 0
	Cache_stats[GLOBAL_ACC_R][TOTAL_ACCESS] = 777984
	Cache_stats[GLOBAL_ACC_W][TOTAL_ACCESS] = 443904
L2 cache stats:
	Cache_stats[GLOBAL_ACC_R][HIT] = 288001
	Cache_stats[GLOBAL_ACC_R][HIT_RESERVED] = 10407
	Cache_stats[GLOBAL_ACC_R][MISS] = 112028
	Cache_stats[GLOBAL_ACC_R][RESERVATION_FAIL] = 143820
	Cache_stats[GLOBAL_ACC_R][SECTOR_MISS] = 336084
	Cache_stats[LOCAL_ACC_R][HIT] = 0
	Cache_stats[LOCAL_ACC_R][HIT_RESERVED] = 0
	Cache_stats[LOCAL_ACC_R][MISS] = 0
	Cache_stats[LOCAL_ACC_R][RESERVATION_FAIL] = 0
	Cache_stats[LOCAL_ACC_R][SECTOR_MISS] = 0
	Cache_stats[CONST_ACC_R][HIT] = 0
	Cache_stats[CONST_ACC_R][HIT_RESERVED] = 0
	Cache_stats[CONST_ACC_R][MISS] = 0
	Cache_stats[CONST_ACC_R][RESERVATION_FAIL] = 0
	Cache_stats[CONST_ACC_R][SECTOR_MISS] = 0
	Cache_stats[TEXTURE_ACC_R][HIT] = 0
	Cache_stats[TEXTURE_ACC_R][HIT_RESERVED] = 0
	Cache_stats[TEXTURE_ACC_R][MISS] = 0
	Cache_stats[TEXTURE_ACC_R][RESERVATION_FAIL] = 0
	Cache_stats[TEXTURE_ACC_R][SECTOR_MISS] = 0
	Cache_stats[GLOBAL_ACC_W][HIT] = 0
	Cache_stats[GLOBAL_ACC_W][HIT_RESERVED] = 0
	Cache_stats[GLOBAL_ACC_W][MISS] = 110976
	Cache_stats[GLOBAL_ACC_W][RESERVATION_FAIL] = 0
	Cache_stats[GLOBAL_ACC_W][SECTOR_MISS] = 332928
	Cache_stats[LOCAL_ACC_W][HIT] = 0
	Cache_stats[LOCAL_ACC_W][HIT_RESERVED] = 0
	Cache_stats[LOCAL_ACC_W][MISS] = 0
	Cache_stats[LOCAL_ACC_W][RESERVATION_FAIL] = 0
	Cache_stats[LOCAL_ACC_W][SECTOR_MISS] = 0
	Cache_stats[L1_WRBK_ACC][HIT] = 0
	Cache_stats[L1_WRBK_ACC][HIT_RESERVED] = 0
	Cache_stats[L1_WRBK_ACC][MISS] = 0
	Cache_stats[L1_WRBK_ACC][RESERVATION_FAIL] = 0
	Cache_stats[L1_WRBK_ACC][SECTOR_MISS] = 0
	Cache_stats[L2_WRBK_ACC][HIT] = 0
	Cache_stats[L2_WRBK_ACC][HIT_RESERVED] = 0
	Cache_stats[L2_WRBK_ACC][MISS] = 0
	Cache_stats[L2_WRBK_ACC][RESERVATION_FAIL] = 0
	Cache_stats[L2_WRBK_ACC][SECTOR_MISS] = 0
	Cache_stats[INST_ACC_R][HIT] = 0
	Cache_stats[INST_ACC_R][HIT_RESERVED] = 0
	Cache_stats[INST_ACC_R][MISS] = 0
	Cache_stats[INST_ACC_R][RESERVATION_FAIL] = 0
	Cache_stats[INST_ACC_R][SECTOR_MISS] = 0
	Cache_stats[L1_WR_ALLOC_R][HIT] = 0
	Cache_stats[L1_WR_ALLOC_R][HIT_RESERVED] = 0
	Cache_stats[L1_WR_ALLOC_R][MISS] = 0
	Cache_stats[L1_WR_ALLOC_R][RESERVATION_FAIL] = 0
	Cache_stats[L1_WR_ALLOC_R][SECTOR_MISS] = 0
	Cache_stats[L2_WR_ALLOC_R][HIT] = 0
	Cache_stats[L2_WR_ALLOC_R][HIT_RESERVED] = 0
	Cache_stats[L2_WR_ALLOC_R][MISS] = 0
	Cache_stats[L2_WR_ALLOC_R][RESERVATION_FAIL] = 0
	Cache_stats[L2_WR_ALLOC_R][SECTOR_MISS] = 0
	Cache_stats[GLOBAL_ACC_R][TOTAL_ACCESS] = 746520
	Cache_stats[GLOBAL_ACC_W][TOTAL_ACCESS] = 443904

icnt_total_pkts_mem_to_simt=1190424
icnt_total_pkts_simt_to_mem=1190424
LD_mem_lat_dist  0 0 0 0 0 0 0 0 0 0 0 0 0 0 0 0 0 0 0 0 0 0 0 0 0 0 0
ST_mem_lat_dist  0 0 0 0 0 0 0 0 0 0 0 0 0 0 0 0 0 0 0 0 0 0 0 0 0 0 0
----------------------------Interconnect-DETAILS--------------------------------
Req_Network_injected_packets_num = 1190424
Req_Network_cycles = 95498
Req_Network_injected_packets_per_cycle =      12.4654 
Req_Network_conflicts_per_cycle =      11.5807
Req_Network_conflicts_per_cycle_util =      16.9815
Req_Bank_Level_Parallism =      18.2788
Req_Network_in_buffer_full_per_cycle =       0.9103
Req_Network_in_buffer_avg_util =      65.7871
Req_Network_out_buffer_full_per_cycle =       0.0407
Req_Network_out_buffer_avg_util =      18.2877

Reply_Network_injected_packets_num = 1190424
Reply_Network_cycles = 95498
Reply_Network_injected_packets_per_cycle =       12.4654
Reply_Network_conflicts_per_cycle =       15.3832
Reply_Network_conflicts_per_cycle_util =      21.7965
Reply_Bank_Level_Parallism =      17.6623
Reply_Network_in_buffer_full_per_cycle =       0.0000
Reply_Network_in_buffer_avg_util =      11.0351
Reply_Network_out_buffer_full_per_cycle =       0.0000
Reply_Network_out_buffer_avg_util =       0.1558
----------------------------END-of-Interconnect-DETAILS-------------------------


gpgpu_simulation_time = 0 days, 0 hrs, 12 min, 38 sec (758 sec)
gpgpu_simulation_rate = 147283 (inst/sec)
gpgpu_simulation_rate = 125 (cycle/sec)
gpgpu_silicon_slowdown = 9056000x
GPGPU-Sim: synchronize waiting for inactive GPU simulation
GPGPU-Sim API: Stream Manager State
GPGPU-Sim: detected inactive GPU simulation thread
Successfully Launched
Result Verified
GPGPU-Sim: *** exit detected ***
